
Circuit: ** sch_path: /home/oe23ranan/mpw/saradcspr2022/tb_my_dynamic_comp.sch

Scale set
Doing analysis at TEMP = 27.000000 and TNOM = 27.000000

Warning: include: has no value, DC 0 assumed

Initial Transient Solution
--------------------------

Node                                   Voltage
----                                   -------
x1.net1                               0.781182
clk                                          0
x1.net3                                 1.5511
inn                                      0.925
x1.net2                                1.56665
inp                                      0.875
net1                                       1.8
net2                                       1.8
vdd                                        1.8
outp                               5.18409e-06
outn                               5.18409e-06
sky130_fd_pr__esd_nfet_05v0_nvt.pm3               0
                                             0
v4#branch                         -1.69192e-08
v3#branch                                    0
v2#branch                                    0
v1#branch                                    0


No. of Data Rows : 3913
     ** sch_path: /home/oe23ranan/mpw/saradcspr2022/tb_my_dynamic_comp.sch
     Transient Analysis  Thu May  5 10:27:21  2022
--------------------------------------------------------------------------------
Index   time            inp             inn             outp            
--------------------------------------------------------------------------------
0	0.000000e+00	8.750000e-01	9.250000e-01	5.184087e-06	
1	1.000000e-11	8.750005e-01	9.249995e-01	5.183904e-06	
2	2.000000e-11	8.750010e-01	9.249990e-01	5.183935e-06	
3	4.000000e-11	8.750020e-01	9.249980e-01	5.184015e-06	
4	8.000000e-11	8.750040e-01	9.249960e-01	5.184082e-06	
5	1.600000e-10	8.750080e-01	9.249920e-01	5.184089e-06	
6	3.200000e-10	8.750160e-01	9.249840e-01	5.184091e-06	
7	6.400000e-10	8.750320e-01	9.249680e-01	5.184088e-06	
8	1.000000e-09	8.750500e-01	9.249500e-01	5.184091e-06	
9	1.006000e-09	8.750503e-01	9.249497e-01	2.768514e-03	
10	1.018000e-09	8.750509e-01	9.249491e-01	2.638180e-03	
11	1.042000e-09	8.750521e-01	9.249479e-01	1.618757e-03	
12	1.060000e-09	8.750530e-01	9.249470e-01	-8.78096e-04	
13	1.064660e-09	8.750532e-01	9.249468e-01	-3.09617e-03	
14	1.073980e-09	8.750537e-01	9.249463e-01	-5.03499e-03	
15	1.092621e-09	8.750546e-01	9.249454e-01	-5.43564e-03	
16	1.129902e-09	8.750565e-01	9.249435e-01	-2.07509e-03	
17	1.204463e-09	8.750602e-01	9.249398e-01	8.675118e-03	
18	1.281118e-09	8.750641e-01	9.249359e-01	-2.87093e-03	
19	1.364208e-09	8.750682e-01	9.249318e-01	2.812292e-03	
20	1.461762e-09	8.750731e-01	9.249269e-01	-2.52255e-03	
21	1.571375e-09	8.750786e-01	9.249214e-01	2.360019e-03	
22	1.790601e-09	8.750895e-01	9.249105e-01	-2.25599e-03	
23	2.041399e-09	8.751021e-01	9.248979e-01	2.211082e-03	
24	2.497197e-09	8.751249e-01	9.248751e-01	-2.15776e-03	
25	3.184979e-09	8.751592e-01	9.248408e-01	2.154752e-03	
26	4.184979e-09	8.752092e-01	9.247908e-01	-2.12171e-03	
27	5.184979e-09	8.752592e-01	9.247408e-01	2.125414e-03	
28	6.060000e-09	8.753030e-01	9.246970e-01	-2.09143e-03	
29	6.066000e-09	8.753033e-01	9.246967e-01	-5.48171e-04	
30	6.078000e-09	8.753039e-01	9.246961e-01	-1.10298e-03	
31	6.102000e-09	8.753051e-01	9.246949e-01	-6.84216e-04	
32	6.120000e-09	8.753060e-01	9.246940e-01	1.736442e-03	
33	6.124800e-09	8.753062e-01	9.246938e-01	2.766388e-03	
34	6.134400e-09	8.753067e-01	9.246933e-01	2.364192e-03	
35	6.153600e-09	8.753077e-01	9.246923e-01	1.691221e-04	
36	6.192000e-09	8.753096e-01	9.246904e-01	7.465371e-05	
37	6.231272e-09	8.753116e-01	9.246884e-01	-1.31835e-03	
38	6.274020e-09	8.753137e-01	9.246863e-01	-1.08804e-04	
39	6.342001e-09	8.753171e-01	9.246829e-01	2.912698e-04	
40	6.409313e-09	8.753205e-01	9.246795e-01	-1.34246e-04	
41	6.543935e-09	8.753272e-01	9.246728e-01	1.426222e-04	
42	6.813180e-09	8.753407e-01	9.246593e-01	-1.28072e-04	
43	7.351670e-09	8.753676e-01	9.246324e-01	1.380517e-04	
44	8.351670e-09	8.754176e-01	9.245824e-01	-1.26935e-04	
45	9.351670e-09	8.754676e-01	9.245324e-01	1.368436e-04	
46	1.035167e-08	8.755176e-01	9.244824e-01	-1.25884e-04	
47	1.100000e-08	8.755500e-01	9.244500e-01	1.354587e-04	
48	1.100600e-08	8.755503e-01	9.244497e-01	2.747124e-03	
49	1.101800e-08	8.755509e-01	9.244491e-01	2.586967e-03	
50	1.104200e-08	8.755521e-01	9.244479e-01	1.330292e-03	
51	1.106000e-08	8.755530e-01	9.244470e-01	-2.38535e-03	
52	1.106480e-08	8.755532e-01	9.244468e-01	-4.30717e-03	
53	1.107440e-08	8.755537e-01	9.244463e-01	-5.43306e-03	
54	1.109360e-08	8.755547e-01	9.244453e-01	-5.88653e-03	

Index   time            inp             inn             outp            
--------------------------------------------------------------------------------
55	1.113200e-08	8.755566e-01	9.244434e-01	1.158284e-03	
56	1.120880e-08	8.755604e-01	9.244396e-01	7.384552e-03	
57	1.128898e-08	8.755644e-01	9.244356e-01	-2.94839e-03	
58	1.137208e-08	8.755686e-01	9.244314e-01	2.773364e-03	
59	1.147511e-08	8.755738e-01	9.244262e-01	-2.50580e-03	
60	1.158954e-08	8.755795e-01	9.244205e-01	2.354865e-03	
61	1.181839e-08	8.755909e-01	9.244091e-01	-2.25605e-03	
62	1.208663e-08	8.756043e-01	9.243957e-01	2.215625e-03	
63	1.256804e-08	8.756284e-01	9.243716e-01	-2.16444e-03	
64	1.330515e-08	8.756653e-01	9.243347e-01	2.162792e-03	
65	1.430515e-08	8.757153e-01	9.242847e-01	-2.12986e-03	
66	1.530515e-08	8.757653e-01	9.242347e-01	2.133469e-03	
67	1.606000e-08	8.758030e-01	9.241970e-01	-2.09705e-03	
68	1.606600e-08	8.758033e-01	9.241967e-01	-5.50783e-04	
69	1.607800e-08	8.758039e-01	9.241961e-01	-1.09770e-03	
70	1.610200e-08	8.758051e-01	9.241949e-01	-6.88192e-04	
71	1.612000e-08	8.758060e-01	9.241940e-01	1.739045e-03	
72	1.612480e-08	8.758062e-01	9.241938e-01	2.767555e-03	
73	1.613440e-08	8.758067e-01	9.241933e-01	2.364892e-03	
74	1.615360e-08	8.758077e-01	9.241923e-01	1.687774e-04	
75	1.619200e-08	8.758096e-01	9.241904e-01	7.332432e-05	
76	1.623126e-08	8.758116e-01	9.241884e-01	-1.31794e-03	
77	1.627400e-08	8.758137e-01	9.241863e-01	-1.08616e-04	
78	1.634200e-08	8.758171e-01	9.241829e-01	2.911706e-04	
79	1.640931e-08	8.758205e-01	9.241795e-01	-1.33979e-04	
80	1.654392e-08	8.758272e-01	9.241728e-01	1.423640e-04	
81	1.681315e-08	8.758407e-01	9.241593e-01	-1.27805e-04	
82	1.735162e-08	8.758676e-01	9.241324e-01	1.377912e-04	
83	1.835162e-08	8.759176e-01	9.240824e-01	-1.26674e-04	
84	1.935162e-08	8.759676e-01	9.240324e-01	1.365843e-04	
85	2.035162e-08	8.760176e-01	9.239824e-01	-1.25625e-04	
86	2.100000e-08	8.760500e-01	9.239500e-01	1.352021e-04	
87	2.100600e-08	8.760503e-01	9.239497e-01	2.747135e-03	
88	2.101800e-08	8.760509e-01	9.239491e-01	2.586974e-03	
89	2.104200e-08	8.760521e-01	9.239479e-01	1.329921e-03	
90	2.106000e-08	8.760530e-01	9.239470e-01	-2.41095e-03	
91	2.106480e-08	8.760532e-01	9.239468e-01	-4.33937e-03	
92	2.107440e-08	8.760537e-01	9.239463e-01	-5.47214e-03	
93	2.109360e-08	8.760547e-01	9.239453e-01	-5.93450e-03	
94	2.113200e-08	8.760566e-01	9.239434e-01	1.225659e-03	
95	2.120880e-08	8.760604e-01	9.239396e-01	7.651687e-03	
96	2.128940e-08	8.760645e-01	9.239355e-01	-3.08662e-03	
97	2.137252e-08	8.760686e-01	9.239314e-01	2.900724e-03	
98	2.147548e-08	8.760738e-01	9.239262e-01	-2.62182e-03	
99	2.158986e-08	8.760795e-01	9.239205e-01	2.465141e-03	
100	2.181861e-08	8.760909e-01	9.239091e-01	-2.36231e-03	
101	2.208529e-08	8.761043e-01	9.238957e-01	2.319903e-03	
102	2.256429e-08	8.761282e-01	9.238718e-01	-2.26655e-03	
103	2.329495e-08	8.761647e-01	9.238353e-01	2.264579e-03	
104	2.429495e-08	8.762147e-01	9.237853e-01	-2.23042e-03	
105	2.529495e-08	8.762647e-01	9.237353e-01	2.234069e-03	
106	2.606000e-08	8.763030e-01	9.236970e-01	-2.19655e-03	
107	2.606600e-08	8.763033e-01	9.236967e-01	-5.67512e-04	
108	2.607800e-08	8.763039e-01	9.236961e-01	-1.08747e-03	
109	2.610200e-08	8.763051e-01	9.236949e-01	-6.97114e-04	
110	2.612000e-08	8.763060e-01	9.236940e-01	1.746063e-03	
111	2.612480e-08	8.763062e-01	9.236938e-01	2.769338e-03	
112	2.613440e-08	8.763067e-01	9.236933e-01	2.365224e-03	

Index   time            inp             inn             outp            
--------------------------------------------------------------------------------
113	2.615360e-08	8.763077e-01	9.236923e-01	1.686991e-04	
114	2.619200e-08	8.763096e-01	9.236904e-01	7.154115e-05	
115	2.623125e-08	8.763116e-01	9.236884e-01	-1.31736e-03	
116	2.627398e-08	8.763137e-01	9.236863e-01	-1.08415e-04	
117	2.634199e-08	8.763171e-01	9.236829e-01	2.910162e-04	
118	2.640930e-08	8.763205e-01	9.236795e-01	-1.33678e-04	
119	2.654391e-08	8.763272e-01	9.236728e-01	1.420721e-04	
120	2.681312e-08	8.763407e-01	9.236593e-01	-1.27505e-04	
121	2.735155e-08	8.763676e-01	9.236324e-01	1.374976e-04	
122	2.835155e-08	8.764176e-01	9.235824e-01	-1.26380e-04	
123	2.935155e-08	8.764676e-01	9.235324e-01	1.362923e-04	
124	3.035155e-08	8.765176e-01	9.234824e-01	-1.25334e-04	
125	3.100000e-08	8.765500e-01	9.234500e-01	1.349131e-04	
126	3.100600e-08	8.765503e-01	9.234497e-01	2.747144e-03	
127	3.101800e-08	8.765509e-01	9.234491e-01	2.586980e-03	
128	3.104200e-08	8.765521e-01	9.234479e-01	1.329515e-03	
129	3.106000e-08	8.765530e-01	9.234470e-01	-2.43670e-03	
130	3.106480e-08	8.765532e-01	9.234468e-01	-4.37176e-03	
131	3.107440e-08	8.765537e-01	9.234463e-01	-5.51172e-03	
132	3.109360e-08	8.765547e-01	9.234453e-01	-5.98279e-03	
133	3.113200e-08	8.765566e-01	9.234434e-01	1.297149e-03	
134	3.120880e-08	8.765604e-01	9.234396e-01	7.929518e-03	
135	3.128984e-08	8.765645e-01	9.234355e-01	-3.22924e-03	
136	3.137298e-08	8.765686e-01	9.234314e-01	3.032089e-03	
137	3.147591e-08	8.765738e-01	9.234262e-01	-2.74153e-03	
138	3.159027e-08	8.765795e-01	9.234205e-01	2.579038e-03	
139	3.181898e-08	8.765909e-01	9.234091e-01	-2.47206e-03	
140	3.208425e-08	8.766042e-01	9.233958e-01	2.427649e-03	
141	3.256104e-08	8.766281e-01	9.233719e-01	-2.37205e-03	
142	3.328571e-08	8.766643e-01	9.233357e-01	2.369762e-03	
143	3.428571e-08	8.767143e-01	9.232857e-01	-2.33432e-03	
144	3.528571e-08	8.767643e-01	9.232357e-01	2.338026e-03	
145	3.606000e-08	8.768030e-01	9.231970e-01	-2.29933e-03	
146	3.606600e-08	8.768033e-01	9.231967e-01	-5.84778e-04	
147	3.607800e-08	8.768039e-01	9.231961e-01	-1.07689e-03	
148	3.610200e-08	8.768051e-01	9.231949e-01	-7.06337e-04	
149	3.612000e-08	8.768060e-01	9.231940e-01	1.753306e-03	
150	3.612480e-08	8.768062e-01	9.231938e-01	2.771170e-03	
151	3.613440e-08	8.768067e-01	9.231933e-01	2.365533e-03	
152	3.615360e-08	8.768077e-01	9.231923e-01	1.686358e-04	
153	3.619200e-08	8.768096e-01	9.231904e-01	6.972816e-05	
154	3.623124e-08	8.768116e-01	9.231884e-01	-1.31676e-03	
155	3.627396e-08	8.768137e-01	9.231863e-01	-1.08210e-04	
156	3.634199e-08	8.768171e-01	9.231829e-01	2.908642e-04	
157	3.640929e-08	8.768205e-01	9.231795e-01	-1.33378e-04	
158	3.654389e-08	8.768272e-01	9.231728e-01	1.417819e-04	
159	3.681309e-08	8.768407e-01	9.231593e-01	-1.27206e-04	
160	3.735148e-08	8.768676e-01	9.231324e-01	1.372056e-04	
161	3.835148e-08	8.769176e-01	9.230824e-01	-1.26088e-04	
162	3.935148e-08	8.769676e-01	9.230324e-01	1.360017e-04	
163	4.035148e-08	8.770176e-01	9.229824e-01	-1.25044e-04	
164	4.100000e-08	8.770500e-01	9.229500e-01	1.346256e-04	
165	4.100600e-08	8.770503e-01	9.229497e-01	2.747154e-03	
166	4.101800e-08	8.770509e-01	9.229491e-01	2.586987e-03	
167	4.104200e-08	8.770521e-01	9.229479e-01	1.329077e-03	
168	4.106000e-08	8.770530e-01	9.229470e-01	-2.46258e-03	
169	4.106480e-08	8.770532e-01	9.229468e-01	-4.40432e-03	
170	4.107440e-08	8.770537e-01	9.229463e-01	-5.55181e-03	

Index   time            inp             inn             outp            
--------------------------------------------------------------------------------
171	4.109360e-08	8.770547e-01	9.229453e-01	-6.03139e-03	
172	4.113200e-08	8.770566e-01	9.229434e-01	1.372993e-03	
173	4.120880e-08	8.770604e-01	9.229396e-01	8.219750e-03	
174	4.129030e-08	8.770645e-01	9.229355e-01	-3.37557e-03	
175	4.137346e-08	8.770687e-01	9.229313e-01	3.167118e-03	
176	4.147639e-08	8.770738e-01	9.229262e-01	-2.86465e-03	
177	4.159077e-08	8.770795e-01	9.229205e-01	2.696288e-03	
178	4.181951e-08	8.770910e-01	9.229090e-01	-2.58502e-03	
179	4.208354e-08	8.771042e-01	9.228958e-01	2.538609e-03	
180	4.255833e-08	8.771279e-01	9.228721e-01	-2.48066e-03	
181	4.327751e-08	8.771639e-01	9.228361e-01	2.478090e-03	
182	4.427751e-08	8.772139e-01	9.227861e-01	-2.44129e-03	
183	4.527751e-08	8.772639e-01	9.227361e-01	2.445088e-03	
184	4.606000e-08	8.773030e-01	9.226970e-01	-2.40514e-03	
185	4.606600e-08	8.773033e-01	9.226967e-01	-6.02563e-04	
186	4.607800e-08	8.773039e-01	9.226961e-01	-1.06599e-03	
187	4.610200e-08	8.773051e-01	9.226949e-01	-7.15842e-04	
188	4.612000e-08	8.773060e-01	9.226940e-01	1.760762e-03	
189	4.612480e-08	8.773062e-01	9.226938e-01	2.773050e-03	
190	4.613440e-08	8.773067e-01	9.226933e-01	2.365820e-03	
191	4.615360e-08	8.773077e-01	9.226923e-01	1.685863e-04	
192	4.619200e-08	8.773096e-01	9.226904e-01	6.788659e-05	
193	4.623123e-08	8.773116e-01	9.226884e-01	-1.31614e-03	
194	4.627394e-08	8.773137e-01	9.226863e-01	-1.08002e-04	
195	4.634199e-08	8.773171e-01	9.226829e-01	2.907143e-04	
196	4.640928e-08	8.773205e-01	9.226795e-01	-1.33079e-04	
197	4.654387e-08	8.773272e-01	9.226728e-01	1.414931e-04	
198	4.681305e-08	8.773407e-01	9.226593e-01	-1.26908e-04	
199	4.735141e-08	8.773676e-01	9.226324e-01	1.369147e-04	
200	4.835141e-08	8.774176e-01	9.225824e-01	-1.25797e-04	
201	4.935141e-08	8.774676e-01	9.225324e-01	1.357123e-04	
202	5.035141e-08	8.775176e-01	9.224824e-01	-1.24756e-04	
203	5.100000e-08	8.775500e-01	9.224500e-01	1.343392e-04	
204	5.100600e-08	8.775503e-01	9.224497e-01	2.747165e-03	
205	5.101800e-08	8.775509e-01	9.224491e-01	2.586993e-03	
206	5.104200e-08	8.775521e-01	9.224479e-01	1.328605e-03	
207	5.106000e-08	8.775530e-01	9.224470e-01	-2.48859e-03	
208	5.106480e-08	8.775532e-01	9.224468e-01	-4.43706e-03	
209	5.107440e-08	8.775537e-01	9.224463e-01	-5.59241e-03	
210	5.109360e-08	8.775547e-01	9.224453e-01	-6.08028e-03	
211	5.113200e-08	8.775566e-01	9.224434e-01	1.453436e-03	
212	5.120880e-08	8.775604e-01	9.224396e-01	8.519383e-03	
213	5.129079e-08	8.775645e-01	9.224355e-01	-3.52640e-03	
214	5.137396e-08	8.775687e-01	9.224313e-01	3.306115e-03	
215	5.147693e-08	8.775738e-01	9.224262e-01	-2.99140e-03	
216	5.159134e-08	8.775796e-01	9.224204e-01	2.817099e-03	
217	5.182016e-08	8.775910e-01	9.224090e-01	-2.70141e-03	
218	5.208305e-08	8.776042e-01	9.223958e-01	2.652972e-03	
219	5.255601e-08	8.776278e-01	9.223722e-01	-2.59258e-03	
220	5.327004e-08	8.776635e-01	9.223365e-01	2.589746e-03	
221	5.427004e-08	8.777135e-01	9.222865e-01	-2.55151e-03	
222	5.527004e-08	8.777635e-01	9.222365e-01	2.555441e-03	
223	5.606000e-08	8.778030e-01	9.221970e-01	-2.51416e-03	
224	5.606600e-08	8.778033e-01	9.221967e-01	-6.20876e-04	
225	5.607800e-08	8.778039e-01	9.221961e-01	-1.05475e-03	
226	5.610200e-08	8.778051e-01	9.221949e-01	-7.25639e-04	
227	5.612000e-08	8.778060e-01	9.221940e-01	1.768439e-03	
228	5.612480e-08	8.778062e-01	9.221938e-01	2.774977e-03	

Index   time            inp             inn             outp            
--------------------------------------------------------------------------------
229	5.613440e-08	8.778067e-01	9.221933e-01	2.366084e-03	
230	5.615360e-08	8.778077e-01	9.221923e-01	1.685513e-04	
231	5.619200e-08	8.778096e-01	9.221904e-01	6.601524e-05	
232	5.623122e-08	8.778116e-01	9.221884e-01	-1.31552e-03	
233	5.627391e-08	8.778137e-01	9.221863e-01	-1.07791e-04	
234	5.634198e-08	8.778171e-01	9.221829e-01	2.905661e-04	
235	5.640927e-08	8.778205e-01	9.221795e-01	-1.32781e-04	
236	5.654386e-08	8.778272e-01	9.221728e-01	1.412053e-04	
237	5.681302e-08	8.778407e-01	9.221593e-01	-1.26611e-04	
238	5.735134e-08	8.778676e-01	9.221324e-01	1.366247e-04	
239	5.835134e-08	8.779176e-01	9.220824e-01	-1.25506e-04	
240	5.935134e-08	8.779676e-01	9.220324e-01	1.354237e-04	
241	6.035134e-08	8.780176e-01	9.219824e-01	-1.24468e-04	
242	6.100000e-08	8.780500e-01	9.219500e-01	1.340537e-04	
243	6.100600e-08	8.780503e-01	9.219497e-01	2.747177e-03	
244	6.101800e-08	8.780509e-01	9.219491e-01	2.586999e-03	
245	6.104200e-08	8.780521e-01	9.219479e-01	1.328100e-03	
246	6.106000e-08	8.780530e-01	9.219470e-01	-2.51475e-03	
247	6.106480e-08	8.780532e-01	9.219468e-01	-4.46997e-03	
248	6.107440e-08	8.780537e-01	9.219463e-01	-5.63352e-03	
249	6.109360e-08	8.780547e-01	9.219453e-01	-6.12944e-03	
250	6.113200e-08	8.780566e-01	9.219434e-01	1.538723e-03	
251	6.120880e-08	8.780604e-01	9.219396e-01	8.830038e-03	
252	6.129130e-08	8.780646e-01	9.219354e-01	-3.68111e-03	
253	6.137448e-08	8.780687e-01	9.219313e-01	3.448629e-03	
254	6.147751e-08	8.780739e-01	9.219261e-01	-3.12140e-03	
255	6.159198e-08	8.780796e-01	9.219204e-01	2.941156e-03	
256	6.182093e-08	8.780910e-01	9.219090e-01	-2.82092e-03	
257	6.208277e-08	8.781041e-01	9.218959e-01	2.770463e-03	
258	6.255404e-08	8.781277e-01	9.218723e-01	-2.70755e-03	
259	6.326320e-08	8.781632e-01	9.218368e-01	2.704465e-03	
260	6.426320e-08	8.782132e-01	9.217868e-01	-2.66474e-03	
261	6.526320e-08	8.782632e-01	9.217368e-01	2.668825e-03	
262	6.606000e-08	8.783030e-01	9.216970e-01	-2.62614e-03	
263	6.606600e-08	8.783033e-01	9.216967e-01	-6.39648e-04	
264	6.607800e-08	8.783039e-01	9.216961e-01	-1.04321e-03	
265	6.610200e-08	8.783051e-01	9.216949e-01	-7.35703e-04	
266	6.612000e-08	8.783060e-01	9.216940e-01	1.776318e-03	
267	6.612480e-08	8.783062e-01	9.216938e-01	2.776949e-03	
268	6.613440e-08	8.783067e-01	9.216933e-01	2.366328e-03	
269	6.615360e-08	8.783077e-01	9.216923e-01	1.685291e-04	
270	6.619200e-08	8.783096e-01	9.216904e-01	6.411573e-05	
271	6.623121e-08	8.783116e-01	9.216884e-01	-1.31489e-03	
272	6.627389e-08	8.783137e-01	9.216863e-01	-1.07574e-04	
273	6.634198e-08	8.783171e-01	9.216829e-01	2.904187e-04	
274	6.640927e-08	8.783205e-01	9.216795e-01	-1.32484e-04	
275	6.654384e-08	8.783272e-01	9.216728e-01	1.409179e-04	
276	6.681298e-08	8.783406e-01	9.216594e-01	-1.26315e-04	
277	6.735127e-08	8.783676e-01	9.216324e-01	1.363348e-04	
278	6.835127e-08	8.784176e-01	9.215824e-01	-1.25216e-04	
279	6.935127e-08	8.784676e-01	9.215324e-01	1.351353e-04	
280	7.035127e-08	8.785176e-01	9.214824e-01	-1.24181e-04	
281	7.100000e-08	8.785500e-01	9.214500e-01	1.337683e-04	
282	7.100600e-08	8.785503e-01	9.214497e-01	2.747190e-03	
283	7.101800e-08	8.785509e-01	9.214491e-01	2.587004e-03	
284	7.104200e-08	8.785521e-01	9.214479e-01	1.327562e-03	
285	7.106000e-08	8.785530e-01	9.214470e-01	-2.54103e-03	
286	7.106480e-08	8.785532e-01	9.214468e-01	-4.50306e-03	

Index   time            inp             inn             outp            
--------------------------------------------------------------------------------
287	7.107440e-08	8.785537e-01	9.214463e-01	-5.67516e-03	
288	7.109360e-08	8.785547e-01	9.214453e-01	-6.17884e-03	
289	7.113200e-08	8.785566e-01	9.214434e-01	1.629101e-03	
290	7.120880e-08	8.785604e-01	9.214396e-01	9.151882e-03	
291	7.129183e-08	8.785646e-01	9.214354e-01	-3.83961e-03	
292	7.137502e-08	8.785688e-01	9.214312e-01	3.594702e-03	
293	7.147814e-08	8.785739e-01	9.214261e-01	-3.25467e-03	
294	7.159270e-08	8.785796e-01	9.214204e-01	3.068438e-03	
295	7.182182e-08	8.785911e-01	9.214089e-01	-2.94351e-03	
296	7.208274e-08	8.786041e-01	9.213959e-01	2.891038e-03	
297	7.255247e-08	8.786276e-01	9.213724e-01	-2.82549e-03	
298	7.325712e-08	8.786629e-01	9.213371e-01	2.822199e-03	
299	7.425712e-08	8.787129e-01	9.212871e-01	-2.78092e-03	
300	7.525712e-08	8.787629e-01	9.212371e-01	2.785186e-03	
301	7.606000e-08	8.788030e-01	9.211970e-01	-2.74101e-03	
302	7.606600e-08	8.788033e-01	9.211967e-01	-6.58917e-04	
303	7.607800e-08	8.788039e-01	9.211961e-01	-1.03135e-03	
304	7.610200e-08	8.788051e-01	9.211949e-01	-7.46037e-04	
305	7.612000e-08	8.788060e-01	9.211940e-01	1.784399e-03	
306	7.612480e-08	8.788062e-01	9.211938e-01	2.778966e-03	
307	7.613440e-08	8.788067e-01	9.211933e-01	2.366550e-03	
308	7.615360e-08	8.788077e-01	9.211923e-01	1.685198e-04	
309	7.619200e-08	8.788096e-01	9.211904e-01	6.218793e-05	
310	7.623120e-08	8.788116e-01	9.211884e-01	-1.31424e-03	
311	7.627387e-08	8.788137e-01	9.211863e-01	-1.07353e-04	
312	7.634198e-08	8.788171e-01	9.211829e-01	2.902722e-04	
313	7.640926e-08	8.788205e-01	9.211795e-01	-1.32186e-04	
314	7.654382e-08	8.788272e-01	9.211728e-01	1.406310e-04	
315	7.681295e-08	8.788406e-01	9.211594e-01	-1.26018e-04	
316	7.735121e-08	8.788676e-01	9.211324e-01	1.360452e-04	
317	7.835121e-08	8.789176e-01	9.210824e-01	-1.24926e-04	
318	7.935121e-08	8.789676e-01	9.210324e-01	1.348471e-04	
319	8.035121e-08	8.790176e-01	9.209824e-01	-1.23893e-04	
320	8.100000e-08	8.790500e-01	9.209500e-01	1.334831e-04	
321	8.100600e-08	8.790503e-01	9.209497e-01	2.747203e-03	
322	8.101800e-08	8.790509e-01	9.209491e-01	2.587009e-03	
323	8.104200e-08	8.790521e-01	9.209479e-01	1.326990e-03	
324	8.106000e-08	8.790530e-01	9.209470e-01	-2.56745e-03	
325	8.106480e-08	8.790532e-01	9.209468e-01	-4.53631e-03	
326	8.107440e-08	8.790537e-01	9.209463e-01	-5.71732e-03	
327	8.109360e-08	8.790547e-01	9.209453e-01	-6.22846e-03	
328	8.113200e-08	8.790566e-01	9.209434e-01	1.724819e-03	
329	8.120880e-08	8.790604e-01	9.209396e-01	9.484876e-03	
330	8.129240e-08	8.790646e-01	9.209354e-01	-4.00198e-03	
331	8.137556e-08	8.790688e-01	9.209312e-01	3.744118e-03	
332	8.147879e-08	8.790739e-01	9.209261e-01	-3.39097e-03	
333	8.159343e-08	8.790797e-01	9.209203e-01	3.198683e-03	
334	8.182271e-08	8.790911e-01	9.209089e-01	-3.06892e-03	
335	8.208258e-08	8.791041e-01	9.208959e-01	3.014379e-03	
336	8.255056e-08	8.791275e-01	9.208725e-01	-2.94609e-03	
337	8.325024e-08	8.791625e-01	9.208375e-01	2.942584e-03	
338	8.425024e-08	8.792125e-01	9.207875e-01	-2.89968e-03	
339	8.525024e-08	8.792625e-01	9.207375e-01	2.904173e-03	
340	8.606000e-08	8.793030e-01	9.206970e-01	-2.85849e-03	
341	8.606600e-08	8.793033e-01	9.206967e-01	-6.78600e-04	
342	8.607800e-08	8.793039e-01	9.206961e-01	-1.01921e-03	
343	8.610200e-08	8.793051e-01	9.206949e-01	-7.56606e-04	
344	8.612000e-08	8.793060e-01	9.206940e-01	1.792659e-03	

Index   time            inp             inn             outp            
--------------------------------------------------------------------------------
345	8.612480e-08	8.793062e-01	9.206938e-01	2.781022e-03	
346	8.613440e-08	8.793067e-01	9.206933e-01	2.366755e-03	
347	8.615360e-08	8.793077e-01	9.206923e-01	1.685214e-04	
348	8.619200e-08	8.793096e-01	9.206904e-01	6.023391e-05	
349	8.623119e-08	8.793116e-01	9.206884e-01	-1.31359e-03	
350	8.627385e-08	8.793137e-01	9.206863e-01	-1.07125e-04	
351	8.634197e-08	8.793171e-01	9.206829e-01	2.901252e-04	
352	8.640925e-08	8.793205e-01	9.206795e-01	-1.31888e-04	
353	8.654381e-08	8.793272e-01	9.206728e-01	1.403433e-04	
354	8.681292e-08	8.793406e-01	9.206594e-01	-1.25720e-04	
355	8.735114e-08	8.793676e-01	9.206324e-01	1.357547e-04	
356	8.835114e-08	8.794176e-01	9.205824e-01	-1.24635e-04	
357	8.935114e-08	8.794676e-01	9.205324e-01	1.345580e-04	
358	9.035114e-08	8.795176e-01	9.204824e-01	-1.23605e-04	
359	9.100000e-08	8.795500e-01	9.204500e-01	1.331970e-04	
360	9.100600e-08	8.795503e-01	9.204497e-01	2.747217e-03	
361	9.101800e-08	8.795509e-01	9.204491e-01	2.587014e-03	
362	9.104200e-08	8.795521e-01	9.204479e-01	1.326385e-03	
363	9.106000e-08	8.795530e-01	9.204470e-01	-2.59400e-03	
364	9.106480e-08	8.795532e-01	9.204468e-01	-4.56973e-03	
365	9.107440e-08	8.795537e-01	9.204463e-01	-5.76004e-03	
366	9.109360e-08	8.795547e-01	9.204453e-01	-6.27826e-03	
367	9.113200e-08	8.795566e-01	9.204434e-01	1.826131e-03	
368	9.120880e-08	8.795604e-01	9.204396e-01	9.829784e-03	
369	9.129297e-08	8.795646e-01	9.204354e-01	-4.16714e-03	
370	9.137617e-08	8.795688e-01	9.204312e-01	3.896639e-03	
371	9.147956e-08	8.795740e-01	9.204260e-01	-3.53025e-03	
372	9.159436e-08	8.795797e-01	9.204203e-01	3.332015e-03	
373	9.182397e-08	8.795912e-01	9.204088e-01	-3.19733e-03	
374	9.208333e-08	8.796042e-01	9.203958e-01	3.140854e-03	
375	9.255040e-08	8.796275e-01	9.203725e-01	-3.06978e-03	
376	9.324695e-08	8.796623e-01	9.203377e-01	3.066148e-03	
377	9.424695e-08	8.797123e-01	9.202877e-01	-3.02153e-03	
378	9.524695e-08	8.797623e-01	9.202377e-01	3.026291e-03	
379	9.606000e-08	8.798030e-01	9.201970e-01	-2.97891e-03	
380	9.606600e-08	8.798033e-01	9.201967e-01	-6.98803e-04	
381	9.607800e-08	8.798039e-01	9.201961e-01	-1.00678e-03	
382	9.610200e-08	8.798051e-01	9.201949e-01	-7.67455e-04	
383	9.612000e-08	8.798060e-01	9.201940e-01	1.801128e-03	
384	9.612480e-08	8.798062e-01	9.201938e-01	2.783124e-03	
385	9.613440e-08	8.798067e-01	9.201933e-01	2.366938e-03	
386	9.615360e-08	8.798077e-01	9.201923e-01	1.685363e-04	
387	9.619200e-08	8.798096e-01	9.201904e-01	5.825036e-05	
388	9.623118e-08	8.798116e-01	9.201884e-01	-1.31292e-03	
389	9.627382e-08	8.798137e-01	9.201863e-01	-1.06893e-04	
390	9.634197e-08	8.798171e-01	9.201829e-01	2.899790e-04	
391	9.640924e-08	8.798205e-01	9.201795e-01	-1.31589e-04	
392	9.654379e-08	8.798272e-01	9.201728e-01	1.400558e-04	
393	9.681288e-08	8.798406e-01	9.201594e-01	-1.25423e-04	
394	9.735107e-08	8.798676e-01	9.201324e-01	1.354642e-04	
395	9.835107e-08	8.799176e-01	9.200824e-01	-1.24344e-04	
396	9.935107e-08	8.799676e-01	9.200324e-01	1.342689e-04	
397	1.003511e-07	8.800176e-01	9.199824e-01	-1.23317e-04	
398	1.010000e-07	8.800500e-01	9.199500e-01	1.329109e-04	
399	1.010060e-07	8.800503e-01	9.199497e-01	2.747232e-03	
400	1.010180e-07	8.800509e-01	9.199491e-01	2.587018e-03	
401	1.010420e-07	8.800521e-01	9.199479e-01	1.325747e-03	
402	1.010600e-07	8.800530e-01	9.199470e-01	-2.62068e-03	

Index   time            inp             inn             outp            
--------------------------------------------------------------------------------
403	1.010648e-07	8.800532e-01	9.199468e-01	-4.60332e-03	
404	1.010744e-07	8.800537e-01	9.199463e-01	-5.80332e-03	
405	1.010936e-07	8.800547e-01	9.199453e-01	-6.32821e-03	
406	1.011320e-07	8.800566e-01	9.199434e-01	1.933286e-03	
407	1.012088e-07	8.800604e-01	9.199396e-01	1.018629e-02	
408	1.012936e-07	8.800647e-01	9.199353e-01	-4.33577e-03	
409	1.013768e-07	8.800688e-01	9.199312e-01	4.052146e-03	
410	1.014803e-07	8.800740e-01	9.199260e-01	-3.67224e-03	
411	1.015953e-07	8.800798e-01	9.199202e-01	3.468010e-03	
412	1.018252e-07	8.800913e-01	9.199087e-01	-3.32826e-03	
413	1.020839e-07	8.801042e-01	9.198958e-01	3.269808e-03	
414	1.025499e-07	8.801275e-01	9.198725e-01	-3.19582e-03	
415	1.032427e-07	8.801621e-01	9.198379e-01	3.192081e-03	
416	1.042427e-07	8.802121e-01	9.197879e-01	-3.14569e-03	
417	1.052427e-07	8.802621e-01	9.197379e-01	3.150755e-03	
418	1.060600e-07	8.803030e-01	9.196970e-01	-3.10166e-03	
419	1.060660e-07	8.803033e-01	9.196967e-01	-7.19378e-04	
420	1.060780e-07	8.803039e-01	9.196961e-01	-9.94086e-04	
421	1.061020e-07	8.803051e-01	9.196949e-01	-7.78514e-04	
422	1.061200e-07	8.803060e-01	9.196940e-01	1.809757e-03	
423	1.061248e-07	8.803062e-01	9.196938e-01	2.785261e-03	
424	1.061344e-07	8.803067e-01	9.196933e-01	2.367104e-03	
425	1.061536e-07	8.803077e-01	9.196923e-01	1.685605e-04	
426	1.061920e-07	8.803096e-01	9.196904e-01	5.624190e-05	
427	1.062312e-07	8.803116e-01	9.196884e-01	-1.31225e-03	
428	1.062738e-07	8.803137e-01	9.196863e-01	-1.06653e-04	
429	1.063420e-07	8.803171e-01	9.196829e-01	2.898310e-04	
430	1.064092e-07	8.803205e-01	9.196795e-01	-1.31289e-04	
431	1.065438e-07	8.803272e-01	9.196728e-01	1.397664e-04	
432	1.068129e-07	8.803406e-01	9.196594e-01	-1.25123e-04	
433	1.073510e-07	8.803676e-01	9.196324e-01	1.351717e-04	
434	1.083510e-07	8.804176e-01	9.195824e-01	-1.24051e-04	
435	1.093510e-07	8.804676e-01	9.195324e-01	1.339778e-04	
436	1.103510e-07	8.805176e-01	9.194824e-01	-1.23027e-04	
437	1.110000e-07	8.805500e-01	9.194500e-01	1.326228e-04	
438	1.110060e-07	8.805503e-01	9.194497e-01	2.747247e-03	
439	1.110180e-07	8.805509e-01	9.194491e-01	2.587023e-03	
440	1.110420e-07	8.805521e-01	9.194479e-01	1.325075e-03	
441	1.110600e-07	8.805530e-01	9.194470e-01	-2.64748e-03	
442	1.110648e-07	8.805532e-01	9.194468e-01	-4.63707e-03	
443	1.110744e-07	8.805537e-01	9.194463e-01	-5.84718e-03	
444	1.110936e-07	8.805547e-01	9.194453e-01	-6.37827e-03	
445	1.111320e-07	8.805566e-01	9.194434e-01	2.046537e-03	
446	1.112088e-07	8.805604e-01	9.194396e-01	1.055478e-02	
447	1.112942e-07	8.805647e-01	9.194353e-01	-4.50736e-03	
448	1.113774e-07	8.805689e-01	9.194311e-01	4.210427e-03	
449	1.114812e-07	8.805741e-01	9.194259e-01	-3.81679e-03	
450	1.115963e-07	8.805798e-01	9.194202e-01	3.606599e-03	
451	1.118266e-07	8.805913e-01	9.194087e-01	-3.46166e-03	
452	1.120847e-07	8.806042e-01	9.193958e-01	3.401264e-03	
453	1.125496e-07	8.806275e-01	9.193725e-01	-3.32428e-03	
454	1.132391e-07	8.806620e-01	9.193380e-01	3.320462e-03	
455	1.142391e-07	8.807120e-01	9.192880e-01	-3.27223e-03	
456	1.152391e-07	8.807620e-01	9.192380e-01	3.277637e-03	
457	1.160600e-07	8.808030e-01	9.191970e-01	-3.22674e-03	
458	1.160660e-07	8.808033e-01	9.191967e-01	-7.40342e-04	
459	1.160780e-07	8.808039e-01	9.191961e-01	-9.81146e-04	
460	1.161020e-07	8.808051e-01	9.191949e-01	-7.89789e-04	

Index   time            inp             inn             outp            
--------------------------------------------------------------------------------
461	1.161200e-07	8.808060e-01	9.191940e-01	1.818548e-03	
462	1.161248e-07	8.808062e-01	9.191938e-01	2.787435e-03	
463	1.161344e-07	8.808067e-01	9.191933e-01	2.367255e-03	
464	1.161536e-07	8.808077e-01	9.191923e-01	1.685940e-04	
465	1.161920e-07	8.808096e-01	9.191904e-01	5.420787e-05	
466	1.162312e-07	8.808116e-01	9.191884e-01	-1.31157e-03	
467	1.162738e-07	8.808137e-01	9.191863e-01	-1.06404e-04	
468	1.163420e-07	8.808171e-01	9.191829e-01	2.896812e-04	
469	1.164092e-07	8.808205e-01	9.191795e-01	-1.30986e-04	
470	1.165438e-07	8.808272e-01	9.191728e-01	1.394751e-04	
471	1.168128e-07	8.808406e-01	9.191594e-01	-1.24821e-04	
472	1.173509e-07	8.808675e-01	9.191325e-01	1.348771e-04	
473	1.183509e-07	8.809175e-01	9.190825e-01	-1.23756e-04	
474	1.193509e-07	8.809675e-01	9.190325e-01	1.336847e-04	
475	1.203509e-07	8.810175e-01	9.189825e-01	-1.22734e-04	
476	1.210000e-07	8.810500e-01	9.189500e-01	1.323327e-04	
477	1.210060e-07	8.810503e-01	9.189497e-01	2.747262e-03	
478	1.210180e-07	8.810509e-01	9.189491e-01	2.587027e-03	
479	1.210420e-07	8.810521e-01	9.189479e-01	1.324369e-03	
480	1.210600e-07	8.810530e-01	9.189470e-01	-2.67440e-03	
481	1.210648e-07	8.810532e-01	9.189468e-01	-4.67099e-03	
482	1.210744e-07	8.810537e-01	9.189463e-01	-5.89166e-03	
483	1.210936e-07	8.810547e-01	9.189453e-01	-6.42838e-03	
484	1.211320e-07	8.810566e-01	9.189434e-01	2.166133e-03	
485	1.212088e-07	8.810604e-01	9.189396e-01	1.093542e-02	
486	1.212949e-07	8.810647e-01	9.189353e-01	-4.68171e-03	
487	1.213781e-07	8.810689e-01	9.189311e-01	4.371288e-03	
488	1.214821e-07	8.810741e-01	9.189259e-01	-3.96373e-03	
489	1.215974e-07	8.810799e-01	9.189201e-01	3.747621e-03	
490	1.218278e-07	8.810914e-01	9.189086e-01	-3.59728e-03	
491	1.220855e-07	8.811043e-01	9.188957e-01	3.534972e-03	
492	1.225491e-07	8.811275e-01	9.188725e-01	-3.45487e-03	
493	1.232351e-07	8.811618e-01	9.188382e-01	3.451004e-03	
494	1.242351e-07	8.812118e-01	9.187882e-01	-3.40086e-03	
495	1.252351e-07	8.812618e-01	9.187382e-01	3.406658e-03	
496	1.260600e-07	8.813030e-01	9.186970e-01	-3.35391e-03	
497	1.260660e-07	8.813033e-01	9.186967e-01	-7.61641e-04	
498	1.260780e-07	8.813039e-01	9.186961e-01	-9.67983e-04	
499	1.261020e-07	8.813051e-01	9.186949e-01	-8.01255e-04	
500	1.261200e-07	8.813060e-01	9.186940e-01	1.827485e-03	
501	1.261248e-07	8.813062e-01	9.186938e-01	2.789641e-03	
502	1.261344e-07	8.813067e-01	9.186933e-01	2.367391e-03	
503	1.261536e-07	8.813077e-01	9.186923e-01	1.686354e-04	
504	1.261920e-07	8.813096e-01	9.186904e-01	5.214968e-05	
505	1.262311e-07	8.813116e-01	9.186884e-01	-1.31088e-03	
506	1.262738e-07	8.813137e-01	9.186863e-01	-1.06146e-04	
507	1.263420e-07	8.813171e-01	9.186829e-01	2.895279e-04	
508	1.264092e-07	8.813205e-01	9.186795e-01	-1.30680e-04	
509	1.265437e-07	8.813272e-01	9.186728e-01	1.391805e-04	
510	1.268128e-07	8.813406e-01	9.186594e-01	-1.24516e-04	
511	1.273509e-07	8.813675e-01	9.186325e-01	1.345791e-04	
512	1.283509e-07	8.814175e-01	9.185825e-01	-1.23458e-04	
513	1.293509e-07	8.814675e-01	9.185325e-01	1.333881e-04	
514	1.303509e-07	8.815175e-01	9.184825e-01	-1.22439e-04	
515	1.310000e-07	8.815500e-01	9.184500e-01	1.320393e-04	
516	1.310060e-07	8.815503e-01	9.184497e-01	2.747277e-03	
517	1.310180e-07	8.815509e-01	9.184491e-01	2.587032e-03	
518	1.310420e-07	8.815521e-01	9.184479e-01	1.323630e-03	

Index   time            inp             inn             outp            
--------------------------------------------------------------------------------
519	1.310600e-07	8.815530e-01	9.184470e-01	-2.70145e-03	
520	1.310648e-07	8.815532e-01	9.184468e-01	-4.70506e-03	
521	1.310744e-07	8.815537e-01	9.184463e-01	-5.93679e-03	
522	1.310936e-07	8.815547e-01	9.184453e-01	-6.47849e-03	
523	1.311320e-07	8.815566e-01	9.184434e-01	2.292409e-03	
524	1.312088e-07	8.815604e-01	9.184396e-01	1.132875e-02	
525	1.312956e-07	8.815648e-01	9.184352e-01	-4.85857e-03	
526	1.313788e-07	8.815689e-01	9.184311e-01	4.534561e-03	
527	1.314830e-07	8.815741e-01	9.184259e-01	-4.11289e-03	
528	1.315985e-07	8.815799e-01	9.184201e-01	3.890918e-03	
529	1.318288e-07	8.815914e-01	9.184086e-01	-3.73489e-03	
530	1.320861e-07	8.816043e-01	9.183957e-01	3.670731e-03	
531	1.325482e-07	8.816274e-01	9.183726e-01	-3.58738e-03	
532	1.332306e-07	8.816615e-01	9.183385e-01	3.583488e-03	
533	1.342306e-07	8.817115e-01	9.182885e-01	-3.53138e-03	
534	1.352306e-07	8.817615e-01	9.182385e-01	3.537601e-03	
535	1.360600e-07	8.818030e-01	9.181970e-01	-3.48297e-03	
536	1.360660e-07	8.818033e-01	9.181967e-01	-7.83229e-04	
537	1.360780e-07	8.818039e-01	9.181961e-01	-9.54614e-04	
538	1.361020e-07	8.818051e-01	9.181949e-01	-8.12896e-04	
539	1.361200e-07	8.818060e-01	9.181940e-01	1.836553e-03	
540	1.361248e-07	8.818062e-01	9.181938e-01	2.791877e-03	
541	1.361344e-07	8.818067e-01	9.181933e-01	2.367515e-03	
542	1.361536e-07	8.818077e-01	9.181923e-01	1.686836e-04	
543	1.361920e-07	8.818096e-01	9.181904e-01	5.006863e-05	
544	1.362311e-07	8.818116e-01	9.181884e-01	-1.31019e-03	
545	1.362737e-07	8.818137e-01	9.181863e-01	-1.05877e-04	
546	1.363420e-07	8.818171e-01	9.181829e-01	2.893706e-04	
547	1.364092e-07	8.818205e-01	9.181795e-01	-1.30369e-04	
548	1.365437e-07	8.818272e-01	9.181728e-01	1.388823e-04	
549	1.368128e-07	8.818406e-01	9.181594e-01	-1.24207e-04	
550	1.373508e-07	8.818675e-01	9.181325e-01	1.342774e-04	
551	1.383508e-07	8.819175e-01	9.180825e-01	-1.23156e-04	
552	1.393508e-07	8.819675e-01	9.180325e-01	1.330879e-04	
553	1.403508e-07	8.820175e-01	9.179825e-01	-1.22139e-04	
554	1.410000e-07	8.820500e-01	9.179500e-01	1.317422e-04	
555	1.410060e-07	8.820503e-01	9.179497e-01	2.747293e-03	
556	1.410180e-07	8.820509e-01	9.179491e-01	2.587037e-03	
557	1.410420e-07	8.820521e-01	9.179479e-01	1.322857e-03	
558	1.410600e-07	8.820530e-01	9.179470e-01	-2.72861e-03	
559	1.410648e-07	8.820532e-01	9.179468e-01	-4.73930e-03	
560	1.410744e-07	8.820537e-01	9.179463e-01	-5.98261e-03	
561	1.410936e-07	8.820547e-01	9.179453e-01	-6.52850e-03	
562	1.411320e-07	8.820566e-01	9.179434e-01	2.425424e-03	
563	1.412088e-07	8.820604e-01	9.179396e-01	1.173455e-02	
564	1.412963e-07	8.820648e-01	9.179352e-01	-5.03776e-03	
565	1.413795e-07	8.820690e-01	9.179310e-01	4.699993e-03	
566	1.414840e-07	8.820742e-01	9.179258e-01	-4.26409e-03	
567	1.415998e-07	8.820800e-01	9.179200e-01	4.036318e-03	
568	1.418300e-07	8.820915e-01	9.179085e-01	-3.87451e-03	
569	1.420871e-07	8.821044e-01	9.178956e-01	3.808540e-03	
570	1.425476e-07	8.821274e-01	9.178726e-01	-3.72186e-03	
571	1.432268e-07	8.821613e-01	9.178387e-01	3.717982e-03	
572	1.442268e-07	8.822113e-01	9.177887e-01	-3.66383e-03	
573	1.452268e-07	8.822613e-01	9.177387e-01	3.670527e-03	
574	1.460600e-07	8.823030e-01	9.176970e-01	-3.61393e-03	
575	1.460660e-07	8.823033e-01	9.176967e-01	-8.05146e-04	
576	1.460780e-07	8.823039e-01	9.176961e-01	-9.41044e-04	

Index   time            inp             inn             outp            
--------------------------------------------------------------------------------
577	1.461020e-07	8.823051e-01	9.176949e-01	-8.24711e-04	
578	1.461200e-07	8.823060e-01	9.176940e-01	1.845754e-03	
579	1.461248e-07	8.823062e-01	9.176938e-01	2.794141e-03	
580	1.461344e-07	8.823067e-01	9.176933e-01	2.367626e-03	
581	1.461536e-07	8.823077e-01	9.176923e-01	1.687384e-04	
582	1.461920e-07	8.823096e-01	9.176904e-01	4.796379e-05	
583	1.462311e-07	8.823116e-01	9.176884e-01	-1.30949e-03	
584	1.462737e-07	8.823137e-01	9.176863e-01	-1.05598e-04	
585	1.463420e-07	8.823171e-01	9.176829e-01	2.892093e-04	
586	1.464092e-07	8.823205e-01	9.176795e-01	-1.30054e-04	
587	1.465437e-07	8.823272e-01	9.176728e-01	1.385801e-04	
588	1.468127e-07	8.823406e-01	9.176594e-01	-1.23893e-04	
589	1.473507e-07	8.823675e-01	9.176325e-01	1.339717e-04	
590	1.483507e-07	8.824175e-01	9.175825e-01	-1.22850e-04	
591	1.493507e-07	8.824675e-01	9.175325e-01	1.327836e-04	
592	1.503507e-07	8.825175e-01	9.174825e-01	-1.21836e-04	
593	1.510000e-07	8.825500e-01	9.174500e-01	1.314411e-04	
594	1.510060e-07	8.825503e-01	9.174497e-01	2.747308e-03	
595	1.510180e-07	8.825509e-01	9.174491e-01	2.587042e-03	
596	1.510420e-07	8.825521e-01	9.174479e-01	1.322051e-03	
597	1.510600e-07	8.825530e-01	9.174470e-01	-2.75589e-03	
598	1.510648e-07	8.825532e-01	9.174468e-01	-4.77368e-03	
599	1.510744e-07	8.825537e-01	9.174463e-01	-6.02920e-03	
600	1.510936e-07	8.825547e-01	9.174453e-01	-6.57834e-03	
601	1.511320e-07	8.825566e-01	9.174434e-01	2.565484e-03	
602	1.512088e-07	8.825604e-01	9.174396e-01	1.215333e-02	
603	1.512971e-07	8.825649e-01	9.174351e-01	-5.21901e-03	
604	1.513802e-07	8.825690e-01	9.174310e-01	4.867386e-03	
605	1.514850e-07	8.825743e-01	9.174257e-01	-4.41712e-03	
606	1.516011e-07	8.825801e-01	9.174199e-01	4.183636e-03	
607	1.518313e-07	8.825916e-01	9.174084e-01	-4.01593e-03	
608	1.520881e-07	8.826044e-01	9.173956e-01	3.948201e-03	
609	1.525474e-07	8.826274e-01	9.173726e-01	-3.85821e-03	
610	1.532235e-07	8.826612e-01	9.173388e-01	3.854282e-03	
611	1.542235e-07	8.827112e-01	9.172888e-01	-3.79801e-03	
612	1.552235e-07	8.827612e-01	9.172388e-01	3.805236e-03	
613	1.560600e-07	8.828030e-01	9.171970e-01	-3.74659e-03	
614	1.560660e-07	8.828033e-01	9.171967e-01	-8.27351e-04	
615	1.560780e-07	8.828039e-01	9.171961e-01	-9.27293e-04	
616	1.561020e-07	8.828051e-01	9.171949e-01	-8.36686e-04	
617	1.561200e-07	8.828060e-01	9.171940e-01	1.855073e-03	
618	1.561248e-07	8.828062e-01	9.171938e-01	2.796432e-03	
619	1.561344e-07	8.828067e-01	9.171933e-01	2.367725e-03	
620	1.561536e-07	8.828077e-01	9.171923e-01	1.687987e-04	
621	1.561920e-07	8.828096e-01	9.171904e-01	4.583703e-05	
622	1.562311e-07	8.828116e-01	9.171884e-01	-1.30878e-03	
623	1.562737e-07	8.828137e-01	9.171863e-01	-1.05307e-04	
624	1.563420e-07	8.828171e-01	9.171829e-01	2.890434e-04	
625	1.564092e-07	8.828205e-01	9.171795e-01	-1.29735e-04	
626	1.565437e-07	8.828272e-01	9.171728e-01	1.382737e-04	
627	1.568127e-07	8.828406e-01	9.171594e-01	-1.23576e-04	
628	1.573507e-07	8.828675e-01	9.171325e-01	1.336617e-04	
629	1.583507e-07	8.829175e-01	9.170825e-01	-1.22539e-04	
630	1.593507e-07	8.829675e-01	9.170325e-01	1.324752e-04	
631	1.603507e-07	8.830175e-01	9.169825e-01	-1.21528e-04	
632	1.610000e-07	8.830500e-01	9.169500e-01	1.311359e-04	
633	1.610060e-07	8.830503e-01	9.169497e-01	2.747324e-03	
634	1.610180e-07	8.830509e-01	9.169491e-01	2.587047e-03	

Index   time            inp             inn             outp            
--------------------------------------------------------------------------------
635	1.610420e-07	8.830521e-01	9.169479e-01	1.321211e-03	
636	1.610600e-07	8.830530e-01	9.169470e-01	-2.78329e-03	
637	1.610648e-07	8.830532e-01	9.169468e-01	-4.80823e-03	
638	1.610744e-07	8.830537e-01	9.169463e-01	-6.07664e-03	
639	1.610936e-07	8.830547e-01	9.169453e-01	-6.62788e-03	
640	1.611320e-07	8.830566e-01	9.169434e-01	2.712790e-03	
641	1.612088e-07	8.830604e-01	9.169396e-01	1.258559e-02	
642	1.612978e-07	8.830649e-01	9.169351e-01	-5.40210e-03	
643	1.613810e-07	8.830690e-01	9.169310e-01	5.036534e-03	
644	1.614861e-07	8.830743e-01	9.169257e-01	-4.57180e-03	
645	1.616025e-07	8.830801e-01	9.169199e-01	4.332702e-03	
646	1.618327e-07	8.830916e-01	9.169084e-01	-4.15898e-03	
647	1.620894e-07	8.831045e-01	9.168955e-01	4.089554e-03	
648	1.625474e-07	8.831274e-01	9.168726e-01	-3.99606e-03	
649	1.632207e-07	8.831610e-01	9.168390e-01	3.992233e-03	
650	1.642207e-07	8.832110e-01	9.167890e-01	-3.93378e-03	
651	1.652207e-07	8.832610e-01	9.167390e-01	3.941576e-03	
652	1.660600e-07	8.833030e-01	9.166970e-01	-3.88081e-03	
653	1.660660e-07	8.833033e-01	9.166967e-01	-8.49824e-04	
654	1.660780e-07	8.833039e-01	9.166961e-01	-9.13375e-04	
655	1.661020e-07	8.833051e-01	9.166949e-01	-8.48804e-04	
656	1.661200e-07	8.833060e-01	9.166940e-01	1.864503e-03	
657	1.661248e-07	8.833062e-01	9.166938e-01	2.798749e-03	
658	1.661344e-07	8.833067e-01	9.166933e-01	2.367815e-03	
659	1.661536e-07	8.833077e-01	9.166923e-01	1.688638e-04	
660	1.661920e-07	8.833096e-01	9.166904e-01	4.368746e-05	
661	1.662311e-07	8.833116e-01	9.166884e-01	-1.30808e-03	
662	1.662737e-07	8.833137e-01	9.166863e-01	-1.05004e-04	
663	1.663420e-07	8.833171e-01	9.166829e-01	2.888718e-04	
664	1.664092e-07	8.833205e-01	9.166795e-01	-1.29410e-04	
665	1.665437e-07	8.833272e-01	9.166728e-01	1.379619e-04	
666	1.668127e-07	8.833406e-01	9.166594e-01	-1.23252e-04	
667	1.673506e-07	8.833675e-01	9.166325e-01	1.333462e-04	
668	1.683506e-07	8.834175e-01	9.165825e-01	-1.22223e-04	
669	1.693506e-07	8.834675e-01	9.165325e-01	1.321612e-04	
670	1.703506e-07	8.835175e-01	9.164825e-01	-1.21215e-04	
671	1.710000e-07	8.835500e-01	9.164500e-01	1.308253e-04	
672	1.710060e-07	8.835503e-01	9.164497e-01	2.747339e-03	
673	1.710180e-07	8.835509e-01	9.164491e-01	2.587053e-03	
674	1.710420e-07	8.835521e-01	9.164479e-01	1.320339e-03	
675	1.710600e-07	8.835530e-01	9.164470e-01	-2.81080e-03	
676	1.710648e-07	8.835532e-01	9.164468e-01	-4.84292e-03	
677	1.710744e-07	8.835537e-01	9.164463e-01	-6.12504e-03	
678	1.710936e-07	8.835547e-01	9.164453e-01	-6.67694e-03	
679	1.711320e-07	8.835566e-01	9.164434e-01	2.867508e-03	
680	1.712088e-07	8.835604e-01	9.164396e-01	1.303157e-02	
681	1.712987e-07	8.835649e-01	9.164351e-01	-5.58685e-03	
682	1.713818e-07	8.835691e-01	9.164309e-01	5.207269e-03	
683	1.714873e-07	8.835744e-01	9.164256e-01	-4.72798e-03	
684	1.716039e-07	8.835802e-01	9.164198e-01	4.483379e-03	
685	1.718342e-07	8.835917e-01	9.164083e-01	-4.30354e-03	
686	1.720909e-07	8.836045e-01	9.163955e-01	4.232469e-03	
687	1.725477e-07	8.836274e-01	9.163726e-01	-4.13539e-03	
688	1.732183e-07	8.836609e-01	9.163391e-01	4.131708e-03	
689	1.742183e-07	8.837109e-01	9.162891e-01	-4.07100e-03	
690	1.752183e-07	8.837609e-01	9.162391e-01	4.079416e-03	
691	1.760600e-07	8.838030e-01	9.161970e-01	-4.01645e-03	
692	1.760660e-07	8.838033e-01	9.161967e-01	-8.72547e-04	

Index   time            inp             inn             outp            
--------------------------------------------------------------------------------
693	1.760780e-07	8.838039e-01	9.161961e-01	-8.99306e-04	
694	1.761020e-07	8.838051e-01	9.161949e-01	-8.61055e-04	
695	1.761200e-07	8.838060e-01	9.161940e-01	1.874034e-03	
696	1.761248e-07	8.838062e-01	9.161938e-01	2.801089e-03	
697	1.761344e-07	8.838067e-01	9.161933e-01	2.367895e-03	
698	1.761536e-07	8.838077e-01	9.161923e-01	1.689328e-04	
699	1.761920e-07	8.838096e-01	9.161904e-01	4.151658e-05	
700	1.762311e-07	8.838116e-01	9.161884e-01	-1.30737e-03	
701	1.762736e-07	8.838137e-01	9.161863e-01	-1.04688e-04	
702	1.763419e-07	8.838171e-01	9.161829e-01	2.886942e-04	
703	1.764092e-07	8.838205e-01	9.161795e-01	-1.29078e-04	
704	1.765437e-07	8.838272e-01	9.161728e-01	1.376444e-04	
705	1.768126e-07	8.838406e-01	9.161594e-01	-1.22923e-04	
706	1.773505e-07	8.838675e-01	9.161325e-01	1.330250e-04	
707	1.783505e-07	8.839175e-01	9.160825e-01	-1.21902e-04	
708	1.793505e-07	8.839675e-01	9.160325e-01	1.318416e-04	
709	1.803505e-07	8.840175e-01	9.159825e-01	-1.20897e-04	
710	1.810000e-07	8.840500e-01	9.159500e-01	1.305090e-04	
711	1.810060e-07	8.840503e-01	9.159497e-01	2.747354e-03	
712	1.810180e-07	8.840509e-01	9.159491e-01	2.587059e-03	
713	1.810420e-07	8.840521e-01	9.159479e-01	1.319433e-03	
714	1.810600e-07	8.840530e-01	9.159470e-01	-2.83842e-03	
715	1.810648e-07	8.840532e-01	9.159468e-01	-4.87777e-03	
716	1.810744e-07	8.840537e-01	9.159463e-01	-6.16605e-03	
717	1.810936e-07	8.840547e-01	9.159453e-01	-6.73657e-03	
718	1.811320e-07	8.840566e-01	9.159434e-01	3.041442e-03	
719	1.812088e-07	8.840604e-01	9.159396e-01	1.348278e-02	
720	1.812995e-07	8.840650e-01	9.159350e-01	-5.76624e-03	
721	1.813826e-07	8.840691e-01	9.159309e-01	5.373032e-03	
722	1.814885e-07	8.840744e-01	9.159256e-01	-4.87955e-03	
723	1.816054e-07	8.840803e-01	9.159197e-01	4.629731e-03	
724	1.818359e-07	8.840918e-01	9.159082e-01	-4.44390e-03	
725	1.820925e-07	8.841046e-01	9.158954e-01	4.371295e-03	
726	1.825484e-07	8.841274e-01	9.158726e-01	-4.27067e-03	
727	1.832166e-07	8.841608e-01	9.158392e-01	4.267175e-03	
728	1.842166e-07	8.842108e-01	9.157892e-01	-4.20430e-03	
729	1.852166e-07	8.842608e-01	9.157392e-01	4.213285e-03	
730	1.860600e-07	8.843030e-01	9.156970e-01	-4.14812e-03	
731	1.860660e-07	8.843033e-01	9.156967e-01	-8.94676e-04	
732	1.860780e-07	8.843039e-01	9.156961e-01	-8.85640e-04	
733	1.861020e-07	8.843051e-01	9.156949e-01	-8.72966e-04	
734	1.861200e-07	8.843060e-01	9.156940e-01	1.883306e-03	
735	1.861248e-07	8.843062e-01	9.156938e-01	2.803374e-03	
736	1.861344e-07	8.843067e-01	9.156933e-01	2.368008e-03	
737	1.861536e-07	8.843077e-01	9.156923e-01	1.689739e-04	
738	1.861920e-07	8.843096e-01	9.156904e-01	3.935401e-05	
739	1.862311e-07	8.843116e-01	9.156884e-01	-1.30668e-03	
740	1.862736e-07	8.843137e-01	9.156863e-01	-1.04336e-04	
741	1.863419e-07	8.843171e-01	9.156829e-01	2.884896e-04	
742	1.864092e-07	8.843205e-01	9.156795e-01	-1.28722e-04	
743	1.865437e-07	8.843272e-01	9.156728e-01	1.373030e-04	
744	1.868126e-07	8.843406e-01	9.156594e-01	-1.22570e-04	
745	1.873505e-07	8.843675e-01	9.156325e-01	1.326803e-04	
746	1.883505e-07	8.844175e-01	9.155825e-01	-1.21557e-04	
747	1.893505e-07	8.844675e-01	9.155325e-01	1.314988e-04	
748	1.903505e-07	8.845175e-01	9.154825e-01	-1.20555e-04	
749	1.910000e-07	8.845500e-01	9.154500e-01	1.301698e-04	
750	1.910060e-07	8.845503e-01	9.154497e-01	2.747365e-03	

Index   time            inp             inn             outp            
--------------------------------------------------------------------------------
751	1.910180e-07	8.845509e-01	9.154491e-01	2.587067e-03	
752	1.910420e-07	8.845521e-01	9.154479e-01	1.318492e-03	
753	1.910600e-07	8.845530e-01	9.154470e-01	-2.86615e-03	
754	1.910648e-07	8.845532e-01	9.154468e-01	-4.91276e-03	
755	1.910744e-07	8.845537e-01	9.154463e-01	-6.20647e-03	
756	1.910936e-07	8.845547e-01	9.154453e-01	-6.79768e-03	
757	1.911320e-07	8.845566e-01	9.154434e-01	3.225495e-03	
758	1.912088e-07	8.845604e-01	9.154396e-01	1.394678e-02	
759	1.912980e-07	8.845649e-01	9.154351e-01	-5.87830e-03	
760	1.913819e-07	8.845691e-01	9.154309e-01	5.507339e-03	
761	1.914874e-07	8.845744e-01	9.154256e-01	-5.00574e-03	
762	1.916044e-07	8.845802e-01	9.154198e-01	4.752663e-03	
763	1.918384e-07	8.845919e-01	9.154081e-01	-4.56493e-03	
764	1.920957e-07	8.846048e-01	9.153952e-01	4.491482e-03	
765	1.925582e-07	8.846279e-01	9.153721e-01	-4.38920e-03	
766	1.932333e-07	8.846617e-01	9.153383e-01	4.386388e-03	
767	1.942333e-07	8.847117e-01	9.152883e-01	-4.32167e-03	
768	1.952333e-07	8.847617e-01	9.152383e-01	4.331243e-03	
769	1.960600e-07	8.848030e-01	9.151970e-01	-4.26365e-03	
770	1.960660e-07	8.848033e-01	9.151967e-01	-9.13032e-04	
771	1.960780e-07	8.848039e-01	9.151961e-01	-8.73488e-04	
772	1.961020e-07	8.848051e-01	9.151949e-01	-8.83315e-04	
773	1.961200e-07	8.848060e-01	9.151940e-01	1.891428e-03	
774	1.961248e-07	8.848062e-01	9.151938e-01	2.805429e-03	
775	1.961344e-07	8.848067e-01	9.151933e-01	2.368259e-03	
776	1.961536e-07	8.848077e-01	9.151923e-01	1.689115e-04	
777	1.961920e-07	8.848096e-01	9.151904e-01	3.727393e-05	
778	1.962311e-07	8.848116e-01	9.151884e-01	-1.30608e-03	
779	1.962736e-07	8.848137e-01	9.151863e-01	-1.03893e-04	
780	1.963419e-07	8.848171e-01	9.151829e-01	2.882106e-04	
781	1.964092e-07	8.848205e-01	9.151795e-01	-1.28297e-04	
782	1.965436e-07	8.848272e-01	9.151728e-01	1.368958e-04	
783	1.968126e-07	8.848406e-01	9.151594e-01	-1.22152e-04	
784	1.973504e-07	8.848675e-01	9.151325e-01	1.322713e-04	
785	1.983504e-07	8.849175e-01	9.150825e-01	-1.21148e-04	
786	1.993504e-07	8.849675e-01	9.150325e-01	1.310923e-04	
787	2.003504e-07	8.850175e-01	9.149825e-01	-1.20150e-04	
788	2.010000e-07	8.850500e-01	9.149500e-01	1.297678e-04	
789	2.010060e-07	8.850503e-01	9.149497e-01	2.747366e-03	
790	2.010180e-07	8.850509e-01	9.149491e-01	2.587083e-03	
791	2.010420e-07	8.850521e-01	9.149479e-01	1.317513e-03	
792	2.010600e-07	8.850530e-01	9.149470e-01	-2.89398e-03	
793	2.010648e-07	8.850532e-01	9.149468e-01	-4.94789e-03	
794	2.010744e-07	8.850537e-01	9.149463e-01	-6.24840e-03	
795	2.010936e-07	8.850547e-01	9.149453e-01	-6.85752e-03	
796	2.011320e-07	8.850566e-01	9.149434e-01	3.417203e-03	
797	2.012088e-07	8.850604e-01	9.149396e-01	1.442633e-02	
798	2.012960e-07	8.850648e-01	9.149352e-01	-5.97384e-03	
799	2.013809e-07	8.850690e-01	9.149310e-01	5.632787e-03	
800	2.014859e-07	8.850743e-01	9.149257e-01	-5.12524e-03	
801	2.016030e-07	8.850802e-01	9.149198e-01	4.869628e-03	
802	2.018372e-07	8.850919e-01	9.149081e-01	-4.67866e-03	
803	2.020957e-07	8.851048e-01	9.148952e-01	4.604928e-03	
804	2.025610e-07	8.851280e-01	9.148720e-01	-4.50088e-03	
805	2.032418e-07	8.851621e-01	9.148379e-01	4.498634e-03	
806	2.042418e-07	8.852121e-01	9.147879e-01	-4.43251e-03	
807	2.052418e-07	8.852621e-01	9.147379e-01	4.442426e-03	
808	2.060600e-07	8.853030e-01	9.146970e-01	-4.37296e-03	

Index   time            inp             inn             outp            
--------------------------------------------------------------------------------
809	2.060660e-07	8.853033e-01	9.146967e-01	-9.29639e-04	
810	2.060780e-07	8.853039e-01	9.146961e-01	-8.61898e-04	
811	2.061020e-07	8.853051e-01	9.146949e-01	-8.93031e-04	
812	2.061200e-07	8.853060e-01	9.146940e-01	1.899084e-03	
813	2.061248e-07	8.853062e-01	9.146938e-01	2.807390e-03	
814	2.061344e-07	8.853067e-01	9.146933e-01	2.368565e-03	
815	2.061536e-07	8.853077e-01	9.146923e-01	1.688047e-04	
816	2.061920e-07	8.853096e-01	9.146904e-01	3.522070e-05	
817	2.062311e-07	8.853116e-01	9.146884e-01	-1.30551e-03	
818	2.062736e-07	8.853137e-01	9.146863e-01	-1.03402e-04	
819	2.063419e-07	8.853171e-01	9.146829e-01	2.878954e-04	
820	2.064092e-07	8.853205e-01	9.146795e-01	-1.27838e-04	
821	2.065436e-07	8.853272e-01	9.146728e-01	1.364568e-04	
822	2.068125e-07	8.853406e-01	9.146594e-01	-1.21703e-04	
823	2.073503e-07	8.853675e-01	9.146325e-01	1.318313e-04	
824	2.083503e-07	8.854175e-01	9.145825e-01	-1.20708e-04	
825	2.093503e-07	8.854675e-01	9.145325e-01	1.306550e-04	
826	2.103503e-07	8.855175e-01	9.144825e-01	-1.19714e-04	
827	2.110000e-07	8.855500e-01	9.144500e-01	1.293353e-04	
828	2.110060e-07	8.855503e-01	9.144497e-01	2.747362e-03	
829	2.110180e-07	8.855509e-01	9.144491e-01	2.587101e-03	
830	2.110420e-07	8.855521e-01	9.144479e-01	1.316500e-03	
831	2.110600e-07	8.855530e-01	9.144470e-01	-2.92191e-03	
832	2.110648e-07	8.855532e-01	9.144468e-01	-4.98317e-03	
833	2.110744e-07	8.855537e-01	9.144463e-01	-6.29164e-03	
834	2.110936e-07	8.855547e-01	9.144453e-01	-6.91632e-03	
835	2.111320e-07	8.855566e-01	9.144434e-01	3.617155e-03	
836	2.112088e-07	8.855604e-01	9.144396e-01	1.492165e-02	
837	2.112942e-07	8.855647e-01	9.144353e-01	-6.06672e-03	
838	2.113801e-07	8.855690e-01	9.144310e-01	5.755323e-03	
839	2.114847e-07	8.855742e-01	9.144258e-01	-5.24283e-03	
840	2.116018e-07	8.855801e-01	9.144199e-01	4.985032e-03	
841	2.118362e-07	8.855918e-01	9.144082e-01	-4.79105e-03	
842	2.120963e-07	8.856048e-01	9.143952e-01	4.717173e-03	
843	2.125645e-07	8.856282e-01	9.143718e-01	-4.61147e-03	
844	2.132515e-07	8.856626e-01	9.143374e-01	4.609823e-03	
845	2.142515e-07	8.857126e-01	9.142874e-01	-4.54225e-03	
846	2.152515e-07	8.857626e-01	9.142374e-01	4.552583e-03	
847	2.160600e-07	8.858030e-01	9.141970e-01	-4.48121e-03	
848	2.160660e-07	8.858033e-01	9.141967e-01	-9.45934e-04	
849	2.160780e-07	8.858039e-01	9.141961e-01	-8.50401e-04	
850	2.161020e-07	8.858051e-01	9.141949e-01	-9.02633e-04	
851	2.161200e-07	8.858060e-01	9.141940e-01	1.906659e-03	
852	2.161248e-07	8.858062e-01	9.141938e-01	2.809335e-03	
853	2.161344e-07	8.858067e-01	9.141933e-01	2.368883e-03	
854	2.161536e-07	8.858077e-01	9.141923e-01	1.686863e-04	
855	2.161920e-07	8.858096e-01	9.141904e-01	3.315999e-05	
856	2.162310e-07	8.858116e-01	9.141884e-01	-1.30496e-03	
857	2.162736e-07	8.858137e-01	9.141863e-01	-1.02886e-04	
858	2.163419e-07	8.858171e-01	9.141829e-01	2.875639e-04	
859	2.164092e-07	8.858205e-01	9.141795e-01	-1.27365e-04	
860	2.165436e-07	8.858272e-01	9.141728e-01	1.360031e-04	
861	2.168125e-07	8.858406e-01	9.141594e-01	-1.21239e-04	
862	2.173503e-07	8.858675e-01	9.141325e-01	1.313766e-04	
863	2.183503e-07	8.859175e-01	9.140825e-01	-1.20254e-04	
864	2.193503e-07	8.859675e-01	9.140325e-01	1.302033e-04	
865	2.203503e-07	8.860175e-01	9.139825e-01	-1.19264e-04	
866	2.210000e-07	8.860500e-01	9.139500e-01	1.288886e-04	

Index   time            inp             inn             outp            
--------------------------------------------------------------------------------
867	2.210060e-07	8.860503e-01	9.139497e-01	2.747357e-03	
868	2.210180e-07	8.860509e-01	9.139491e-01	2.587121e-03	
869	2.210420e-07	8.860521e-01	9.139479e-01	1.315454e-03	
870	2.210600e-07	8.860530e-01	9.139470e-01	-2.94995e-03	
871	2.210648e-07	8.860532e-01	9.139468e-01	-5.01859e-03	
872	2.210744e-07	8.860537e-01	9.139463e-01	-6.33602e-03	
873	2.210936e-07	8.860547e-01	9.139453e-01	-6.97428e-03	
874	2.211320e-07	8.860566e-01	9.139434e-01	3.825929e-03	
875	2.212088e-07	8.860604e-01	9.139396e-01	1.543313e-02	
876	2.212924e-07	8.860646e-01	9.139354e-01	-6.15625e-03	
877	2.213794e-07	8.860690e-01	9.139310e-01	5.874268e-03	
878	2.214839e-07	8.860742e-01	9.139258e-01	-5.35926e-03	
879	2.216012e-07	8.860801e-01	9.139199e-01	5.099244e-03	
880	2.218356e-07	8.860918e-01	9.139082e-01	-4.90229e-03	
881	2.220977e-07	8.861049e-01	9.138951e-01	4.828496e-03	
882	2.225683e-07	8.861284e-01	9.138716e-01	-4.72111e-03	
883	2.232619e-07	8.861631e-01	9.138369e-01	4.720103e-03	
884	2.242619e-07	8.862131e-01	9.137869e-01	-4.65110e-03	
885	2.252619e-07	8.862631e-01	9.137369e-01	4.661850e-03	
886	2.260600e-07	8.863030e-01	9.136970e-01	-4.58852e-03	
887	2.260660e-07	8.863033e-01	9.136967e-01	-9.62035e-04	
888	2.260780e-07	8.863039e-01	9.136961e-01	-8.38992e-04	
889	2.261020e-07	8.863051e-01	9.136949e-01	-9.12141e-04	
890	2.261200e-07	8.863060e-01	9.136940e-01	1.914168e-03	
891	2.261248e-07	8.863062e-01	9.136938e-01	2.811269e-03	
892	2.261344e-07	8.863067e-01	9.136933e-01	2.369213e-03	
893	2.261536e-07	8.863077e-01	9.136923e-01	1.685575e-04	
894	2.261920e-07	8.863096e-01	9.136904e-01	3.108970e-05	
895	2.262310e-07	8.863116e-01	9.136884e-01	-1.30441e-03	
896	2.262735e-07	8.863137e-01	9.136863e-01	-1.02347e-04	
897	2.263419e-07	8.863171e-01	9.136829e-01	2.872161e-04	
898	2.264092e-07	8.863205e-01	9.136795e-01	-1.26875e-04	
899	2.265436e-07	8.863272e-01	9.136728e-01	1.355346e-04	
900	2.268125e-07	8.863406e-01	9.136594e-01	-1.20761e-04	
901	2.273502e-07	8.863675e-01	9.136325e-01	1.309075e-04	
902	2.283502e-07	8.864175e-01	9.135825e-01	-1.19785e-04	
903	2.293502e-07	8.864675e-01	9.135325e-01	1.297372e-04	
904	2.303502e-07	8.865175e-01	9.134825e-01	-1.18800e-04	
905	2.310000e-07	8.865500e-01	9.134500e-01	1.284276e-04	
906	2.310060e-07	8.865503e-01	9.134497e-01	2.747349e-03	
907	2.310180e-07	8.865509e-01	9.134491e-01	2.587143e-03	
908	2.310420e-07	8.865521e-01	9.134479e-01	1.314374e-03	
909	2.310600e-07	8.865530e-01	9.134470e-01	-2.97808e-03	
910	2.310648e-07	8.865532e-01	9.134468e-01	-5.05415e-03	
911	2.310744e-07	8.865537e-01	9.134463e-01	-6.38143e-03	
912	2.310936e-07	8.865547e-01	9.134453e-01	-7.03158e-03	
913	2.311320e-07	8.865566e-01	9.134434e-01	4.044081e-03	
914	2.312088e-07	8.865604e-01	9.134396e-01	1.596115e-02	
915	2.312908e-07	8.865645e-01	9.134355e-01	-6.24176e-03	
916	2.313788e-07	8.865689e-01	9.134311e-01	5.988956e-03	
917	2.314839e-07	8.865742e-01	9.134258e-01	-5.47445e-03	
918	2.316010e-07	8.865801e-01	9.134199e-01	5.212031e-03	
919	2.318354e-07	8.865918e-01	9.134082e-01	-5.01207e-03	
920	2.321000e-07	8.866050e-01	9.133950e-01	4.938651e-03	
921	2.325723e-07	8.866286e-01	9.133714e-01	-4.82951e-03	
922	2.332730e-07	8.866637e-01	9.133363e-01	4.829184e-03	
923	2.342730e-07	8.867137e-01	9.132863e-01	-4.75877e-03	
924	2.352730e-07	8.867637e-01	9.132363e-01	4.769936e-03	

Index   time            inp             inn             outp            
--------------------------------------------------------------------------------
925	2.360600e-07	8.868030e-01	9.131970e-01	-4.69461e-03	
926	2.360660e-07	8.868033e-01	9.131967e-01	-9.77914e-04	
927	2.360780e-07	8.868039e-01	9.131961e-01	-8.27703e-04	
928	2.361020e-07	8.868051e-01	9.131949e-01	-9.21533e-04	
929	2.361200e-07	8.868060e-01	9.131940e-01	1.921591e-03	
930	2.361248e-07	8.868062e-01	9.131938e-01	2.813187e-03	
931	2.361344e-07	8.868067e-01	9.131933e-01	2.369555e-03	
932	2.361536e-07	8.868077e-01	9.131923e-01	1.684165e-04	
933	2.361920e-07	8.868096e-01	9.131904e-01	2.901241e-05	
934	2.362310e-07	8.868116e-01	9.131884e-01	-1.30387e-03	
935	2.362735e-07	8.868137e-01	9.131863e-01	-1.01782e-04	
936	2.363419e-07	8.868171e-01	9.131829e-01	2.868514e-04	
937	2.364092e-07	8.868205e-01	9.131795e-01	-1.26370e-04	
938	2.365436e-07	8.868272e-01	9.131728e-01	1.350510e-04	
939	2.368124e-07	8.868406e-01	9.131594e-01	-1.20267e-04	
940	2.373502e-07	8.868675e-01	9.131325e-01	1.304234e-04	
941	2.383502e-07	8.869175e-01	9.130825e-01	-1.19301e-04	
942	2.393502e-07	8.869675e-01	9.130325e-01	1.292563e-04	
943	2.403502e-07	8.870175e-01	9.129825e-01	-1.18320e-04	
944	2.410000e-07	8.870500e-01	9.129500e-01	1.279520e-04	
945	2.410060e-07	8.870503e-01	9.129497e-01	2.747340e-03	
946	2.410180e-07	8.870509e-01	9.129491e-01	2.587166e-03	
947	2.410420e-07	8.870521e-01	9.129479e-01	1.313262e-03	
948	2.410600e-07	8.870530e-01	9.129470e-01	-3.00631e-03	
949	2.410648e-07	8.870532e-01	9.129468e-01	-5.08985e-03	
950	2.410744e-07	8.870537e-01	9.129463e-01	-6.42773e-03	
951	2.410936e-07	8.870547e-01	9.129453e-01	-7.08835e-03	
952	2.411320e-07	8.870566e-01	9.129434e-01	4.272148e-03	
953	2.412088e-07	8.870604e-01	9.129396e-01	1.650626e-02	
954	2.412892e-07	8.870645e-01	9.129355e-01	-6.32249e-03	
955	2.413784e-07	8.870689e-01	9.129311e-01	6.098673e-03	
956	2.414840e-07	8.870742e-01	9.129258e-01	-5.58594e-03	
957	2.416011e-07	8.870801e-01	9.129199e-01	5.321513e-03	
958	2.418354e-07	8.870918e-01	9.129082e-01	-5.11885e-03	
959	2.421027e-07	8.871051e-01	9.128949e-01	5.045947e-03	
960	2.425769e-07	8.871288e-01	9.128712e-01	-4.93520e-03	
961	2.432853e-07	8.871643e-01	9.128357e-01	4.935582e-03	
962	2.442853e-07	8.872143e-01	9.127857e-01	-4.86382e-03	
963	2.452853e-07	8.872643e-01	9.127357e-01	4.875392e-03	
964	2.460600e-07	8.873030e-01	9.126970e-01	-4.79806e-03	
965	2.460660e-07	8.873033e-01	9.126967e-01	-9.93206e-04	
966	2.460780e-07	8.873039e-01	9.126961e-01	-8.16669e-04	
967	2.461020e-07	8.873051e-01	9.126949e-01	-9.30667e-04	
968	2.461200e-07	8.873060e-01	9.126940e-01	1.928824e-03	
969	2.461248e-07	8.873062e-01	9.126938e-01	2.815065e-03	
970	2.461344e-07	8.873067e-01	9.126933e-01	2.369922e-03	
971	2.461536e-07	8.873077e-01	9.126923e-01	1.682543e-04	
972	2.461920e-07	8.873096e-01	9.126904e-01	2.693621e-05	
973	2.462310e-07	8.873116e-01	9.126884e-01	-1.30335e-03	
974	2.462735e-07	8.873137e-01	9.126863e-01	-1.01185e-04	
975	2.463419e-07	8.873171e-01	9.126829e-01	2.864638e-04	
976	2.464091e-07	8.873205e-01	9.126795e-01	-1.25843e-04	
977	2.465436e-07	8.873272e-01	9.126728e-01	1.345470e-04	
978	2.468124e-07	8.873406e-01	9.126594e-01	-1.19753e-04	
979	2.473501e-07	8.873675e-01	9.126325e-01	1.299192e-04	
980	2.483501e-07	8.874175e-01	9.125825e-01	-1.18797e-04	
981	2.493501e-07	8.874675e-01	9.125325e-01	1.287554e-04	
982	2.503501e-07	8.875175e-01	9.124825e-01	-1.17821e-04	

Index   time            inp             inn             outp            
--------------------------------------------------------------------------------
983	2.510000e-07	8.875500e-01	9.124500e-01	1.274567e-04	
984	2.510060e-07	8.875503e-01	9.124497e-01	2.747328e-03	
985	2.510180e-07	8.875509e-01	9.124491e-01	2.587191e-03	
986	2.510420e-07	8.875521e-01	9.124479e-01	1.312117e-03	
987	2.510600e-07	8.875530e-01	9.124470e-01	-3.03464e-03	
988	2.510648e-07	8.875532e-01	9.124468e-01	-5.12568e-03	
989	2.510744e-07	8.875537e-01	9.124463e-01	-6.47483e-03	
990	2.510936e-07	8.875547e-01	9.124453e-01	-7.14472e-03	
991	2.511320e-07	8.875566e-01	9.124434e-01	4.510651e-03	
992	2.512088e-07	8.875604e-01	9.124396e-01	1.706874e-02	
993	2.512877e-07	8.875644e-01	9.124356e-01	-6.39778e-03	
994	2.513780e-07	8.875689e-01	9.124311e-01	6.202609e-03	
995	2.514841e-07	8.875742e-01	9.124258e-01	-5.69279e-03	
996	2.516013e-07	8.875801e-01	9.124199e-01	5.426722e-03	
997	2.518356e-07	8.875918e-01	9.124082e-01	-5.22171e-03	
998	2.521056e-07	8.876053e-01	9.123947e-01	5.149421e-03	
999	2.525819e-07	8.876291e-01	9.123709e-01	-5.03727e-03	
1000	2.532982e-07	8.876649e-01	9.123351e-01	5.038347e-03	
1001	2.542982e-07	8.877149e-01	9.122851e-01	-4.96535e-03	
1002	2.552982e-07	8.877649e-01	9.122351e-01	4.977288e-03	
1003	2.560600e-07	8.878030e-01	9.121970e-01	-4.89799e-03	
1004	2.560660e-07	8.878033e-01	9.121967e-01	-1.00771e-03	
1005	2.560780e-07	8.878039e-01	9.121961e-01	-8.05976e-04	
1006	2.561020e-07	8.878051e-01	9.121949e-01	-9.39457e-04	
1007	2.561200e-07	8.878060e-01	9.121940e-01	1.935804e-03	
1008	2.561248e-07	8.878062e-01	9.121938e-01	2.816892e-03	
1009	2.561344e-07	8.878067e-01	9.121933e-01	2.370320e-03	
1010	2.561536e-07	8.878077e-01	9.121923e-01	1.680655e-04	
1011	2.561920e-07	8.878096e-01	9.121904e-01	2.486652e-05	
1012	2.562310e-07	8.878115e-01	9.121885e-01	-1.30285e-03	
1013	2.562735e-07	8.878137e-01	9.121863e-01	-1.00552e-04	
1014	2.563419e-07	8.878171e-01	9.121829e-01	2.860498e-04	
1015	2.564091e-07	8.878205e-01	9.121795e-01	-1.25291e-04	
1016	2.565436e-07	8.878272e-01	9.121728e-01	1.340194e-04	
1017	2.568124e-07	8.878406e-01	9.121594e-01	-1.19215e-04	
1018	2.573500e-07	8.878675e-01	9.121325e-01	1.293919e-04	
1019	2.583500e-07	8.879175e-01	9.120825e-01	-1.18270e-04	
1020	2.593500e-07	8.879675e-01	9.120325e-01	1.282317e-04	
1021	2.603500e-07	8.880175e-01	9.119825e-01	-1.17300e-04	
1022	2.610000e-07	8.880500e-01	9.119500e-01	1.269389e-04	
1023	2.610060e-07	8.880503e-01	9.119497e-01	2.747312e-03	
1024	2.610180e-07	8.880509e-01	9.119491e-01	2.587218e-03	
1025	2.610420e-07	8.880521e-01	9.119479e-01	1.310939e-03	
1026	2.610600e-07	8.880530e-01	9.119470e-01	-3.06306e-03	
1027	2.610648e-07	8.880532e-01	9.119468e-01	-5.16165e-03	
1028	2.610744e-07	8.880537e-01	9.119463e-01	-6.52265e-03	
1029	2.610936e-07	8.880547e-01	9.119453e-01	-7.20077e-03	
1030	2.611320e-07	8.880566e-01	9.119434e-01	4.760101e-03	
1031	2.612088e-07	8.880604e-01	9.119396e-01	1.765030e-02	
1032	2.612863e-07	8.880643e-01	9.119357e-01	-6.46676e-03	
1033	2.613764e-07	8.880688e-01	9.119312e-01	6.296414e-03	
1034	2.614825e-07	8.880741e-01	9.119259e-01	-5.78558e-03	
1035	2.615991e-07	8.880800e-01	9.119200e-01	5.517315e-03	
1036	2.618323e-07	8.880916e-01	9.119084e-01	-5.31069e-03	
1037	2.621037e-07	8.881052e-01	9.118948e-01	5.238556e-03	
1038	2.625811e-07	8.881291e-01	9.118709e-01	-5.12576e-03	
1039	2.633044e-07	8.881652e-01	9.118348e-01	5.127282e-03	
1040	2.643044e-07	8.882152e-01	9.117848e-01	-5.05365e-03	

Index   time            inp             inn             outp            
--------------------------------------------------------------------------------
1041	2.653044e-07	8.882652e-01	9.117348e-01	5.065718e-03	
1042	2.660600e-07	8.883030e-01	9.116970e-01	-4.98537e-03	
1043	2.660660e-07	8.883033e-01	9.116967e-01	-1.01869e-03	
1044	2.660780e-07	8.883039e-01	9.116961e-01	-7.96439e-04	
1045	2.661020e-07	8.883051e-01	9.116949e-01	-9.46988e-04	
1046	2.661200e-07	8.883060e-01	9.116940e-01	1.941833e-03	
1047	2.661248e-07	8.883062e-01	9.116938e-01	2.818513e-03	
1048	2.661344e-07	8.883067e-01	9.116933e-01	2.370819e-03	
1049	2.661536e-07	8.883077e-01	9.116923e-01	1.677912e-04	
1050	2.661920e-07	8.883096e-01	9.116904e-01	2.287097e-05	
1051	2.662310e-07	8.883115e-01	9.116885e-01	-1.30242e-03	
1052	2.662734e-07	8.883137e-01	9.116863e-01	-9.98410e-05	
1053	2.663419e-07	8.883171e-01	9.116829e-01	2.855770e-04	
1054	2.664091e-07	8.883205e-01	9.116795e-01	-1.24687e-04	
1055	2.665435e-07	8.883272e-01	9.116728e-01	1.334421e-04	
1056	2.668124e-07	8.883406e-01	9.116594e-01	-1.18629e-04	
1057	2.673500e-07	8.883675e-01	9.116325e-01	1.288160e-04	
1058	2.683500e-07	8.884175e-01	9.115825e-01	-1.17695e-04	
1059	2.693500e-07	8.884675e-01	9.115325e-01	1.276598e-04	
1060	2.703500e-07	8.885175e-01	9.114825e-01	-1.16730e-04	
1061	2.710000e-07	8.885500e-01	9.114500e-01	1.263734e-04	
1062	2.710060e-07	8.885503e-01	9.114497e-01	2.747289e-03	
1063	2.710180e-07	8.885509e-01	9.114491e-01	2.587251e-03	
1064	2.710420e-07	8.885521e-01	9.114479e-01	1.309727e-03	
1065	2.710600e-07	8.885530e-01	9.114470e-01	-3.09157e-03	
1066	2.710648e-07	8.885532e-01	9.114468e-01	-5.19774e-03	
1067	2.710744e-07	8.885537e-01	9.114463e-01	-6.57113e-03	
1068	2.710936e-07	8.885547e-01	9.114453e-01	-7.25658e-03	
1069	2.711320e-07	8.885566e-01	9.114434e-01	5.021006e-03	
1070	2.712088e-07	8.885604e-01	9.114396e-01	1.825044e-02	
1071	2.712850e-07	8.885642e-01	9.114358e-01	-6.52895e-03	
1072	2.713750e-07	8.885687e-01	9.114313e-01	6.384344e-03	
1073	2.714810e-07	8.885741e-01	9.114259e-01	-5.87308e-03	
1074	2.715971e-07	8.885799e-01	9.114201e-01	5.602881e-03	
1075	2.718293e-07	8.885915e-01	9.114085e-01	-5.39491e-03	
1076	2.721019e-07	8.886051e-01	9.113949e-01	5.322969e-03	
1077	2.725808e-07	8.886290e-01	9.113710e-01	-5.20968e-03	
1078	2.733112e-07	8.886656e-01	9.113344e-01	5.211628e-03	
1079	2.743112e-07	8.887156e-01	9.112844e-01	-5.13745e-03	
1080	2.753112e-07	8.887656e-01	9.112344e-01	5.149611e-03	
1081	2.760600e-07	8.888030e-01	9.111970e-01	-5.06825e-03	
1082	2.760660e-07	8.888033e-01	9.111967e-01	-1.02893e-03	
1083	2.760780e-07	8.888039e-01	9.111961e-01	-7.87371e-04	
1084	2.761020e-07	8.888051e-01	9.111949e-01	-9.54109e-04	
1085	2.761200e-07	8.888060e-01	9.111940e-01	1.947555e-03	
1086	2.761248e-07	8.888062e-01	9.111938e-01	2.820070e-03	
1087	2.761344e-07	8.888067e-01	9.111933e-01	2.371356e-03	
1088	2.761536e-07	8.888077e-01	9.111923e-01	1.674854e-04	
1089	2.761920e-07	8.888096e-01	9.111904e-01	2.088410e-05	
1090	2.762310e-07	8.888115e-01	9.111885e-01	-1.30202e-03	
1091	2.762734e-07	8.888137e-01	9.111863e-01	-9.90908e-05	
1092	2.763419e-07	8.888171e-01	9.111829e-01	2.850742e-04	
1093	2.764091e-07	8.888205e-01	9.111795e-01	-1.24055e-04	
1094	2.765435e-07	8.888272e-01	9.111728e-01	1.328376e-04	
1095	2.768123e-07	8.888406e-01	9.111594e-01	-1.18015e-04	
1096	2.773499e-07	8.888675e-01	9.111325e-01	1.282135e-04	
1097	2.783499e-07	8.889175e-01	9.110825e-01	-1.17094e-04	
1098	2.793499e-07	8.889675e-01	9.110325e-01	1.270616e-04	

Index   time            inp             inn             outp            
--------------------------------------------------------------------------------
1099	2.803499e-07	8.890175e-01	9.109825e-01	-1.16134e-04	
1100	2.810000e-07	8.890500e-01	9.109500e-01	1.257820e-04	
1101	2.810060e-07	8.890503e-01	9.109497e-01	2.747262e-03	
1102	2.810180e-07	8.890509e-01	9.109491e-01	2.587287e-03	
1103	2.810420e-07	8.890521e-01	9.109479e-01	1.308481e-03	
1104	2.810600e-07	8.890530e-01	9.109470e-01	-3.12017e-03	
1105	2.810648e-07	8.890532e-01	9.109468e-01	-5.23396e-03	
1106	2.810744e-07	8.890537e-01	9.109463e-01	-6.62021e-03	
1107	2.810936e-07	8.890547e-01	9.109453e-01	-7.31223e-03	
1108	2.811320e-07	8.890566e-01	9.109434e-01	5.293851e-03	
1109	2.812088e-07	8.890604e-01	9.109396e-01	1.886143e-02	
1110	2.812837e-07	8.890642e-01	9.109358e-01	-6.58363e-03	
1111	2.813736e-07	8.890687e-01	9.109313e-01	6.465406e-03	
1112	2.814798e-07	8.890740e-01	9.109260e-01	-5.95496e-03	
1113	2.815954e-07	8.890798e-01	9.109202e-01	5.682988e-03	
1114	2.818265e-07	8.890913e-01	9.109087e-01	-5.47401e-03	
1115	2.820998e-07	8.891050e-01	9.108950e-01	5.402044e-03	
1116	2.825789e-07	8.891289e-01	9.108711e-01	-5.28835e-03	
1117	2.833142e-07	8.891657e-01	9.108343e-01	5.290532e-03	
1118	2.843142e-07	8.892157e-01	9.107843e-01	-5.21599e-03	
1119	2.853142e-07	8.892657e-01	9.107343e-01	5.228170e-03	
1120	2.860600e-07	8.893030e-01	9.106970e-01	-5.14618e-03	
1121	2.860660e-07	8.893033e-01	9.106967e-01	-1.03809e-03	
1122	2.860780e-07	8.893039e-01	9.106961e-01	-7.78802e-04	
1123	2.861020e-07	8.893051e-01	9.106949e-01	-9.60730e-04	
1124	2.861200e-07	8.893060e-01	9.106940e-01	1.952909e-03	
1125	2.861248e-07	8.893062e-01	9.106938e-01	2.821550e-03	
1126	2.861344e-07	8.893067e-01	9.106933e-01	2.371938e-03	
1127	2.861536e-07	8.893077e-01	9.106923e-01	1.671432e-04	
1128	2.861920e-07	8.893096e-01	9.106904e-01	1.891122e-05	
1129	2.862310e-07	8.893115e-01	9.106885e-01	-1.30165e-03	
1130	2.862734e-07	8.893137e-01	9.106863e-01	-9.82972e-05	
1131	2.863419e-07	8.893171e-01	9.106829e-01	2.845380e-04	
1132	2.864091e-07	8.893205e-01	9.106795e-01	-1.23391e-04	
1133	2.865435e-07	8.893272e-01	9.106728e-01	1.322034e-04	
1134	2.868123e-07	8.893406e-01	9.106594e-01	-1.17372e-04	
1135	2.873499e-07	8.893675e-01	9.106325e-01	1.275818e-04	
1136	2.883499e-07	8.894175e-01	9.105825e-01	-1.16463e-04	
1137	2.893499e-07	8.894675e-01	9.105325e-01	1.264345e-04	
1138	2.903499e-07	8.895175e-01	9.104825e-01	-1.15510e-04	
1139	2.910000e-07	8.895500e-01	9.104500e-01	1.251620e-04	
1140	2.910060e-07	8.895503e-01	9.104497e-01	2.747230e-03	
1141	2.910180e-07	8.895509e-01	9.104491e-01	2.587326e-03	
1142	2.910420e-07	8.895521e-01	9.104479e-01	1.307204e-03	
1143	2.910600e-07	8.895530e-01	9.104470e-01	-3.14885e-03	
1144	2.910648e-07	8.895532e-01	9.104468e-01	-5.27031e-03	
1145	2.910744e-07	8.895537e-01	9.104463e-01	-6.66982e-03	
1146	2.910936e-07	8.895547e-01	9.104453e-01	-7.36776e-03	
1147	2.911320e-07	8.895566e-01	9.104434e-01	5.579133e-03	
1148	2.912088e-07	8.895604e-01	9.104396e-01	1.951310e-02	
1149	2.912825e-07	8.895641e-01	9.104359e-01	-6.62804e-03	
1150	2.913723e-07	8.895686e-01	9.104314e-01	6.537171e-03	
1151	2.914789e-07	8.895739e-01	9.104261e-01	-6.02895e-03	
1152	2.915939e-07	8.895797e-01	9.104203e-01	5.755708e-03	
1153	2.918241e-07	8.895912e-01	9.104088e-01	-5.54622e-03	
1154	2.920995e-07	8.896050e-01	9.103950e-01	5.474871e-03	
1155	2.925805e-07	8.896290e-01	9.103710e-01	-5.36122e-03	
1156	2.933257e-07	8.896663e-01	9.103337e-01	5.363860e-03	

Index   time            inp             inn             outp            
--------------------------------------------------------------------------------
1157	2.943257e-07	8.897163e-01	9.102837e-01	-5.28908e-03	
1158	2.953257e-07	8.897663e-01	9.102337e-01	5.301228e-03	
1159	2.960600e-07	8.898030e-01	9.101970e-01	-5.21828e-03	
1160	2.960660e-07	8.898033e-01	9.101967e-01	-1.04609e-03	
1161	2.960780e-07	8.898039e-01	9.101961e-01	-7.70848e-04	
1162	2.961020e-07	8.898051e-01	9.101949e-01	-9.66818e-04	
1163	2.961200e-07	8.898060e-01	9.101940e-01	1.957860e-03	
1164	2.961248e-07	8.898062e-01	9.101938e-01	2.822943e-03	
1165	2.961344e-07	8.898067e-01	9.101933e-01	2.372568e-03	
1166	2.961536e-07	8.898077e-01	9.101923e-01	1.667604e-04	
1167	2.961920e-07	8.898096e-01	9.101904e-01	1.695627e-05	
1168	2.962310e-07	8.898115e-01	9.101885e-01	-1.30131e-03	
1169	2.962734e-07	8.898137e-01	9.101863e-01	-9.74567e-05	
1170	2.963419e-07	8.898171e-01	9.101829e-01	2.839654e-04	
1171	2.964091e-07	8.898205e-01	9.101795e-01	-1.22694e-04	
1172	2.965435e-07	8.898272e-01	9.101728e-01	1.315370e-04	
1173	2.968123e-07	8.898406e-01	9.101594e-01	-1.16697e-04	
1174	2.973498e-07	8.898675e-01	9.101325e-01	1.269186e-04	
1175	2.983498e-07	8.899175e-01	9.100825e-01	-1.15801e-04	
1176	2.993498e-07	8.899675e-01	9.100325e-01	1.257761e-04	
1177	3.003498e-07	8.900175e-01	9.099825e-01	-1.14854e-04	
1178	3.010000e-07	8.900500e-01	9.099500e-01	1.245112e-04	
1179	3.010060e-07	8.900503e-01	9.099497e-01	2.747193e-03	
1180	3.010180e-07	8.900509e-01	9.099491e-01	2.587368e-03	
1181	3.010420e-07	8.900521e-01	9.099479e-01	1.305894e-03	
1182	3.010600e-07	8.900530e-01	9.099470e-01	-3.17762e-03	
1183	3.010648e-07	8.900532e-01	9.099468e-01	-5.30678e-03	
1184	3.010744e-07	8.900537e-01	9.099463e-01	-6.71995e-03	
1185	3.010936e-07	8.900547e-01	9.099453e-01	-7.42321e-03	
1186	3.011320e-07	8.900566e-01	9.099434e-01	5.877358e-03	
1187	3.012088e-07	8.900604e-01	9.099396e-01	2.017815e-02	
1188	3.012814e-07	8.900641e-01	9.099359e-01	-6.66325e-03	
1189	3.013711e-07	8.900686e-01	9.099314e-01	6.601023e-03	
1190	3.014780e-07	8.900739e-01	9.099261e-01	-6.09536e-03	
1191	3.015926e-07	8.900796e-01	9.099204e-01	5.821251e-03	
1192	3.018219e-07	8.900911e-01	9.099089e-01	-5.61167e-03	
1193	3.020988e-07	8.901049e-01	9.098951e-01	5.540719e-03	
1194	3.025814e-07	8.901291e-01	9.098709e-01	-5.42727e-03	
1195	3.033346e-07	8.901667e-01	9.098333e-01	5.430214e-03	
1196	3.043346e-07	8.902167e-01	9.097833e-01	-5.35536e-03	
1197	3.053346e-07	8.902667e-01	9.097333e-01	5.367409e-03	
1198	3.060600e-07	8.903030e-01	9.096970e-01	-5.28377e-03	
1199	3.060660e-07	8.903033e-01	9.096967e-01	-1.05294e-03	
1200	3.060780e-07	8.903039e-01	9.096961e-01	-7.63549e-04	
1201	3.061020e-07	8.903051e-01	9.096949e-01	-9.72299e-04	
1202	3.061200e-07	8.903060e-01	9.096940e-01	1.962355e-03	
1203	3.061248e-07	8.903062e-01	9.096938e-01	2.824240e-03	
1204	3.061344e-07	8.903067e-01	9.096933e-01	2.373253e-03	
1205	3.061536e-07	8.903077e-01	9.096923e-01	1.663337e-04	
1206	3.061920e-07	8.903096e-01	9.096904e-01	1.502430e-05	
1207	3.062309e-07	8.903115e-01	9.096885e-01	-1.30100e-03	
1208	3.062734e-07	8.903137e-01	9.096863e-01	-9.65678e-05	
1209	3.063419e-07	8.903171e-01	9.096829e-01	2.833556e-04	
1210	3.064091e-07	8.903205e-01	9.096795e-01	-1.21962e-04	
1211	3.065435e-07	8.903272e-01	9.096728e-01	1.308376e-04	
1212	3.068122e-07	8.903406e-01	9.096594e-01	-1.15990e-04	
1213	3.073497e-07	8.903675e-01	9.096325e-01	1.262231e-04	
1214	3.083497e-07	8.904175e-01	9.095825e-01	-1.15107e-04	

Index   time            inp             inn             outp            
--------------------------------------------------------------------------------
1215	3.093497e-07	8.904675e-01	9.095325e-01	1.250858e-04	
1216	3.103497e-07	8.905175e-01	9.094825e-01	-1.14166e-04	
1217	3.110000e-07	8.905500e-01	9.094500e-01	1.238287e-04	
1218	3.110060e-07	8.905503e-01	9.094497e-01	2.747152e-03	
1219	3.110180e-07	8.905509e-01	9.094491e-01	2.587414e-03	
1220	3.110420e-07	8.905521e-01	9.094479e-01	1.304552e-03	
1221	3.110600e-07	8.905530e-01	9.094470e-01	-3.20647e-03	
1222	3.110648e-07	8.905532e-01	9.094468e-01	-5.34338e-03	
1223	3.110744e-07	8.905537e-01	9.094463e-01	-6.77055e-03	
1224	3.110936e-07	8.905547e-01	9.094453e-01	-7.47862e-03	
1225	3.111320e-07	8.905566e-01	9.094434e-01	6.189018e-03	
1226	3.112088e-07	8.905604e-01	9.094396e-01	2.086726e-02	
1227	3.112803e-07	8.905640e-01	9.094360e-01	-6.68751e-03	
1228	3.113700e-07	8.905685e-01	9.094315e-01	6.655169e-03	
1229	3.114772e-07	8.905739e-01	9.094261e-01	-6.15289e-03	
1230	3.115915e-07	8.905796e-01	9.094204e-01	5.878426e-03	
1231	3.118199e-07	8.905910e-01	9.094090e-01	-5.66927e-03	
1232	3.120982e-07	8.906049e-01	9.093951e-01	5.598733e-03	
1233	3.125825e-07	8.906291e-01	9.093709e-01	-5.48577e-03	
1234	3.133440e-07	8.906672e-01	9.093328e-01	5.488952e-03	
1235	3.143440e-07	8.907172e-01	9.092828e-01	-5.41421e-03	
1236	3.153440e-07	8.907672e-01	9.092328e-01	5.426087e-03	
1237	3.160600e-07	8.908030e-01	9.091970e-01	-5.34193e-03	
1238	3.160660e-07	8.908033e-01	9.091967e-01	-1.05840e-03	
1239	3.160780e-07	8.908039e-01	9.091961e-01	-7.56998e-04	
1240	3.161020e-07	8.908051e-01	9.091949e-01	-9.77092e-04	
1241	3.161200e-07	8.908060e-01	9.091940e-01	1.966335e-03	
1242	3.161248e-07	8.908062e-01	9.091938e-01	2.825429e-03	
1243	3.161344e-07	8.908067e-01	9.091933e-01	2.373999e-03	
1244	3.161536e-07	8.908077e-01	9.091923e-01	1.658572e-04	
1245	3.161920e-07	8.908096e-01	9.091904e-01	1.311894e-05	
1246	3.162309e-07	8.908115e-01	9.091885e-01	-1.30074e-03	
1247	3.162733e-07	8.908137e-01	9.091863e-01	-9.56254e-05	
1248	3.163419e-07	8.908171e-01	9.091829e-01	2.827035e-04	
1249	3.164091e-07	8.908205e-01	9.091795e-01	-1.21191e-04	
1250	3.165435e-07	8.908272e-01	9.091728e-01	1.301009e-04	
1251	3.168122e-07	8.908406e-01	9.091594e-01	-1.15245e-04	
1252	3.173497e-07	8.908675e-01	9.091325e-01	1.254910e-04	
1253	3.183497e-07	8.909175e-01	9.090825e-01	-1.14376e-04	
1254	3.193497e-07	8.909675e-01	9.090325e-01	1.243593e-04	
1255	3.203497e-07	8.910175e-01	9.089825e-01	-1.13443e-04	
1256	3.210000e-07	8.910500e-01	9.089500e-01	1.231105e-04	
1257	3.210060e-07	8.910503e-01	9.089497e-01	2.747105e-03	
1258	3.210180e-07	8.910509e-01	9.089491e-01	2.587463e-03	
1259	3.210420e-07	8.910521e-01	9.089479e-01	1.303179e-03	
1260	3.210600e-07	8.910530e-01	9.089470e-01	-3.23540e-03	
1261	3.210648e-07	8.910532e-01	9.089468e-01	-5.38009e-03	
1262	3.210744e-07	8.910537e-01	9.089463e-01	-6.82160e-03	
1263	3.210936e-07	8.910547e-01	9.089453e-01	-7.53401e-03	
1264	3.211320e-07	8.910566e-01	9.089434e-01	6.514705e-03	
1265	3.212088e-07	8.910604e-01	9.089396e-01	2.158309e-02	
1266	3.212793e-07	8.910640e-01	9.089360e-01	-6.69954e-03	
1267	3.213689e-07	8.910684e-01	9.089316e-01	6.698624e-03	
1268	3.214766e-07	8.910738e-01	9.089262e-01	-6.20059e-03	
1269	3.215904e-07	8.910795e-01	9.089205e-01	5.926329e-03	
1270	3.218181e-07	8.910909e-01	9.089091e-01	-5.71816e-03	
1271	3.220977e-07	8.911049e-01	9.088951e-01	5.648040e-03	
1272	3.225839e-07	8.911292e-01	9.088708e-01	-5.53587e-03	

Index   time            inp             inn             outp            
--------------------------------------------------------------------------------
1273	3.233537e-07	8.911677e-01	9.088323e-01	5.539209e-03	
1274	3.243537e-07	8.912177e-01	9.087823e-01	-5.46478e-03	
1275	3.253537e-07	8.912677e-01	9.087323e-01	5.476403e-03	
1276	3.260600e-07	8.913030e-01	9.086970e-01	-5.39189e-03	
1277	3.260660e-07	8.913033e-01	9.086967e-01	-1.06239e-03	
1278	3.260780e-07	8.913039e-01	9.086961e-01	-7.51278e-04	
1279	3.261020e-07	8.913051e-01	9.086949e-01	-9.81126e-04	
1280	3.261200e-07	8.913060e-01	9.086940e-01	1.969747e-03	
1281	3.261248e-07	8.913062e-01	9.086938e-01	2.826497e-03	
1282	3.261344e-07	8.913067e-01	9.086933e-01	2.374812e-03	
1283	3.261536e-07	8.913077e-01	9.086923e-01	1.653264e-04	
1284	3.261920e-07	8.913096e-01	9.086904e-01	1.124501e-05	
1285	3.262309e-07	8.913115e-01	9.086885e-01	-1.30052e-03	
1286	3.262733e-07	8.913137e-01	9.086863e-01	-9.46262e-05	
1287	3.263419e-07	8.913171e-01	9.086829e-01	2.820065e-04	
1288	3.264091e-07	8.913205e-01	9.086795e-01	-1.20379e-04	
1289	3.265435e-07	8.913272e-01	9.086728e-01	1.293244e-04	
1290	3.268122e-07	8.913406e-01	9.086594e-01	-1.14461e-04	
1291	3.273496e-07	8.913675e-01	9.086325e-01	1.247201e-04	
1292	3.283496e-07	8.914175e-01	9.085825e-01	-1.13607e-04	
1293	3.293496e-07	8.914675e-01	9.085325e-01	1.235942e-04	
1294	3.303496e-07	8.915175e-01	9.084825e-01	-1.12681e-04	
1295	3.310000e-07	8.915500e-01	9.084500e-01	1.223543e-04	
1296	3.310060e-07	8.915503e-01	9.084497e-01	2.747051e-03	
1297	3.310180e-07	8.915509e-01	9.084491e-01	2.587517e-03	
1298	3.310420e-07	8.915521e-01	9.084479e-01	1.301773e-03	
1299	3.310600e-07	8.915530e-01	9.084470e-01	-3.26441e-03	
1300	3.310648e-07	8.915532e-01	9.084468e-01	-5.41692e-03	
1301	3.310744e-07	8.915537e-01	9.084463e-01	-6.87308e-03	
1302	3.310936e-07	8.915547e-01	9.084453e-01	-7.58941e-03	
1303	3.311320e-07	8.915566e-01	9.084434e-01	6.854776e-03	
1304	3.312088e-07	8.915604e-01	9.084396e-01	2.232621e-02	
1305	3.312783e-07	8.915639e-01	9.084361e-01	-6.69801e-03	
1306	3.313680e-07	8.915684e-01	9.084316e-01	6.730278e-03	
1307	3.314761e-07	8.915738e-01	9.084262e-01	-6.23751e-03	
1308	3.315896e-07	8.915795e-01	9.084205e-01	5.964053e-03	
1309	3.318167e-07	8.915908e-01	9.084092e-01	-5.75746e-03	
1310	3.320978e-07	8.916049e-01	9.083951e-01	5.687891e-03	
1311	3.325863e-07	8.916293e-01	9.083707e-01	-5.57686e-03	
[...]
3341	8.516008e-07	4.153525e-03	
3342	8.518310e-07	-3.98703e-03	
3343	8.520879e-07	3.919661e-03	
3344	8.525474e-07	-3.83037e-03	
3345	8.532241e-07	3.826434e-03	
3346	8.542241e-07	-3.77060e-03	
3347	8.552241e-07	3.777716e-03	
3348	8.560600e-07	-3.71950e-03	
3349	8.560660e-07	-8.22830e-04	
3350	8.560780e-07	-9.30057e-04	
3351	8.561020e-07	-8.34325e-04	
3352	8.561200e-07	1.852906e-03	
3353	8.561248e-07	2.795581e-03	
3354	8.561344e-07	2.366509e-03	
3355	8.561536e-07	1.695338e-04	
3356	8.561920e-07	4.772505e-05	
3357	8.562311e-07	-1.30900e-03	
3358	8.562737e-07	-1.06237e-04	
3359	8.563420e-07	2.897773e-04	
3360	8.564092e-07	-1.30623e-04	

Index   time            outn            
--------------------------------------------------------------------------------
3361	8.565437e-07	1.391279e-04	
3362	8.568127e-07	-1.24435e-04	
3363	8.573508e-07	1.345074e-04	
3364	8.583508e-07	-1.23383e-04	
3365	8.593508e-07	1.333144e-04	
3366	8.603508e-07	-1.22364e-04	
3367	8.610000e-07	1.319655e-04	
3368	8.610060e-07	2.747341e-03	
3369	8.610180e-07	2.586982e-03	
3370	8.610420e-07	1.322509e-03	
3371	8.610600e-07	-2.72422e-03	
3372	8.610648e-07	-4.73303e-03	
3373	8.610744e-07	-5.97351e-03	
3374	8.610936e-07	-6.51821e-03	
3375	8.611320e-07	2.399832e-03	
3376	8.612088e-07	1.165076e-02	
3377	8.612961e-07	-5.00104e-03	
3378	8.613793e-07	4.666118e-03	
3379	8.614838e-07	-4.23315e-03	
3380	8.615995e-07	4.006562e-03	
3381	8.618297e-07	-3.84595e-03	
3382	8.620868e-07	3.780344e-03	
3383	8.625477e-07	-3.69435e-03	
3384	8.632275e-07	3.690470e-03	
3385	8.642275e-07	-3.63674e-03	
3386	8.652275e-07	3.643338e-03	
3387	8.660600e-07	-3.58715e-03	
3388	8.660660e-07	-8.00680e-04	
3389	8.660780e-07	-9.43775e-04	
3390	8.661020e-07	-8.22379e-04	
3391	8.661200e-07	1.843610e-03	
3392	8.661248e-07	2.793297e-03	
3393	8.661344e-07	2.366411e-03	
3394	8.661536e-07	1.694694e-04	
3395	8.661920e-07	4.983381e-05	
3396	8.662311e-07	-1.30971e-03	
3397	8.662737e-07	-1.06506e-04	
3398	8.663420e-07	2.899299e-04	
3399	8.664092e-07	-1.30929e-04	
3400	8.665437e-07	1.394221e-04	
3401	8.668128e-07	-1.24740e-04	
3402	8.673508e-07	1.348053e-04	
3403	8.683508e-07	-1.23681e-04	
3404	8.693508e-07	1.336109e-04	
3405	8.703508e-07	-1.22660e-04	
3406	8.710000e-07	1.322590e-04	
3407	8.710060e-07	2.747324e-03	
3408	8.710180e-07	2.586977e-03	
3409	8.710420e-07	1.323276e-03	
3410	8.710600e-07	-2.69709e-03	
3411	8.710648e-07	-4.69883e-03	
3412	8.710744e-07	-5.92781e-03	
3413	8.710936e-07	-6.46819e-03	
3414	8.711320e-07	2.268106e-03	
3415	8.712088e-07	1.124709e-02	
3416	8.712954e-07	-4.82229e-03	
3417	8.713786e-07	4.501064e-03	
3418	8.714828e-07	-4.08233e-03	

Index   time            outn            
--------------------------------------------------------------------------------
3419	8.715983e-07	3.861553e-03	
3420	8.718286e-07	-3.70671e-03	
3421	8.720860e-07	3.642931e-03	
3422	8.725484e-07	-3.56026e-03	
3423	8.732316e-07	3.556370e-03	
3424	8.742316e-07	-3.50467e-03	
3425	8.752316e-07	3.510800e-03	
3426	8.760600e-07	-3.45656e-03	
3427	8.760660e-07	-7.78834e-04	
3428	8.760780e-07	-9.57308e-04	
3429	8.761020e-07	-8.10595e-04	
3430	8.761200e-07	1.834436e-03	
3431	8.761248e-07	2.791040e-03	
3432	8.761344e-07	2.366301e-03	
3433	8.761536e-07	1.694107e-04	
3434	8.761920e-07	5.192019e-05	
3435	8.762311e-07	-1.31041e-03	
3436	8.762738e-07	-1.06763e-04	
3437	8.763420e-07	2.900781e-04	
3438	8.764092e-07	-1.31231e-04	
3439	8.765437e-07	1.397122e-04	
3440	8.768128e-07	-1.25042e-04	
3441	8.773509e-07	1.350990e-04	
3442	8.783509e-07	-1.23976e-04	
3443	8.793509e-07	1.339032e-04	
3444	8.803509e-07	-1.22951e-04	
3445	8.810000e-07	1.325482e-04	
3446	8.810060e-07	2.747308e-03	
3447	8.810180e-07	2.586973e-03	
3448	8.810420e-07	1.324011e-03	
3449	8.810600e-07	-2.67006e-03	
3450	8.810648e-07	-4.66479e-03	
3451	8.810744e-07	-5.88280e-03	
3452	8.810936e-07	-6.41809e-03	
3453	8.811320e-07	2.143253e-03	
3454	8.812088e-07	1.085670e-02	
3455	8.812947e-07	-4.64588e-03	
3456	8.813779e-07	4.338256e-03	
3457	8.814819e-07	-3.93358e-03	
3458	8.815972e-07	3.718682e-03	
3459	8.818276e-07	-3.56949e-03	
3460	8.820854e-07	3.507566e-03	
3461	8.825493e-07	-3.42812e-03	
3462	8.832361e-07	3.424262e-03	
3463	8.842361e-07	-3.37452e-03	
3464	8.852361e-07	3.380229e-03	
3465	8.860600e-07	-3.32786e-03	
3466	8.860660e-07	-7.57301e-04	
3467	8.860780e-07	-9.70637e-04	
3468	8.861020e-07	-7.98989e-04	
3469	8.861200e-07	1.825395e-03	
3470	8.861248e-07	2.788812e-03	
3471	8.861344e-07	2.366178e-03	
3472	8.861536e-07	1.693589e-04	
3473	8.861920e-07	5.398348e-05	
3474	8.862312e-07	-1.31111e-03	
3475	8.862738e-07	-1.07010e-04	
3476	8.863420e-07	2.902222e-04	

Index   time            outn            
--------------------------------------------------------------------------------
3477	8.864092e-07	-1.31529e-04	
3478	8.865438e-07	1.399985e-04	
3479	8.868128e-07	-1.25339e-04	
3480	8.873510e-07	1.353889e-04	
3481	8.883510e-07	-1.24266e-04	
3482	8.893510e-07	1.341918e-04	
3483	8.903510e-07	-1.23239e-04	
3484	8.910000e-07	1.328337e-04	
3485	8.910060e-07	2.747291e-03	
3486	8.910180e-07	2.586969e-03	
3487	8.910420e-07	1.324712e-03	
3488	8.910600e-07	-2.64316e-03	
3489	8.910648e-07	-4.63090e-03	
3490	8.910744e-07	-5.83844e-03	
3491	8.910936e-07	-6.36800e-03	
3492	8.911320e-07	2.024938e-03	
3493	8.912088e-07	1.047853e-02	
3494	8.912941e-07	-4.47207e-03	
3495	8.913773e-07	4.177879e-03	
3496	8.914810e-07	-3.78709e-03	
3497	8.915961e-07	3.578119e-03	
3498	8.918263e-07	-3.43426e-03	
3499	8.920845e-07	3.374254e-03	
3500	8.925496e-07	-3.29790e-03	
3501	8.932397e-07	3.294087e-03	
3502	8.942397e-07	-3.24624e-03	
3503	8.952397e-07	3.251574e-03	
3504	8.960600e-07	-3.20106e-03	
3505	8.960660e-07	-7.36055e-04	
3506	8.960780e-07	-9.83762e-04	
3507	8.961020e-07	-7.87555e-04	
3508	8.961200e-07	1.816485e-03	
3509	8.961248e-07	2.786614e-03	
3510	8.961344e-07	2.366042e-03	
3511	8.961536e-07	1.693137e-04	
3512	8.961920e-07	5.602382e-05	
3513	8.962312e-07	-1.31180e-03	
3514	8.962738e-07	-1.07246e-04	
3515	8.963420e-07	2.903621e-04	
3516	8.964092e-07	-1.31822e-04	
3517	8.965438e-07	1.402809e-04	
3518	8.968129e-07	-1.25632e-04	
3519	8.973510e-07	1.356747e-04	
3520	8.983510e-07	-1.24552e-04	
3521	8.993510e-07	1.344763e-04	
3522	9.003510e-07	-1.23523e-04	
3523	9.010000e-07	1.331153e-04	
3524	9.010060e-07	2.747275e-03	
3525	9.010180e-07	2.586965e-03	
3526	9.010420e-07	1.325379e-03	
3527	9.010600e-07	-2.61639e-03	
3528	9.010648e-07	-4.59718e-03	
3529	9.010744e-07	-5.79468e-03	
3530	9.010936e-07	-6.31797e-03	
3531	9.011320e-07	1.912918e-03	
3532	9.012088e-07	1.011242e-02	
3533	9.012935e-07	-4.30101e-03	
3534	9.013767e-07	4.020121e-03	

Index   time            outn            
--------------------------------------------------------------------------------
3535	9.014802e-07	-3.64302e-03	
3536	9.015951e-07	3.440025e-03	
3537	9.018249e-07	-3.30132e-03	
3538	9.020838e-07	3.243278e-03	
3539	9.025499e-07	-3.16990e-03	
3540	9.032435e-07	3.166177e-03	
3541	9.042435e-07	-3.12016e-03	
3542	9.052435e-07	3.125156e-03	
3543	9.060600e-07	-3.07642e-03	
3544	9.060660e-07	-7.15169e-04	
3545	9.060780e-07	-9.96654e-04	
3546	9.061020e-07	-7.76321e-04	
3547	9.061200e-07	1.807726e-03	
3548	9.061248e-07	2.784449e-03	
3549	9.061344e-07	2.365891e-03	
3550	9.061536e-07	1.692769e-04	
3551	9.061920e-07	5.803955e-05	
3552	9.062312e-07	-1.31248e-03	
3553	9.062738e-07	-1.07474e-04	
3554	9.063420e-07	2.904997e-04	
3555	9.064092e-07	-1.32113e-04	
3556	9.065438e-07	1.405608e-04	
3557	9.068129e-07	-1.25922e-04	
3558	9.073511e-07	1.359580e-04	
3559	9.083511e-07	-1.24836e-04	
3560	9.093511e-07	1.347583e-04	
3561	9.103511e-07	-1.23804e-04	
3562	9.110000e-07	1.333944e-04	
3563	9.110060e-07	2.747258e-03	
3564	9.110180e-07	2.586961e-03	
3565	9.110420e-07	1.326013e-03	
3566	9.110600e-07	-2.58974e-03	
3567	9.110648e-07	-4.56362e-03	
3568	9.110744e-07	-5.75151e-03	
3569	9.110936e-07	-6.26806e-03	
3570	9.111320e-07	1.806942e-03	
3571	9.112088e-07	9.758280e-03	
3572	9.112928e-07	-4.13299e-03	
3573	9.113760e-07	3.865180e-03	
3574	9.114794e-07	-3.50156e-03	
3575	9.115942e-07	3.304559e-03	
3576	9.118237e-07	-3.17090e-03	
3577	9.120832e-07	3.114833e-03	
3578	9.125505e-07	-3.04434e-03	
3579	9.132479e-07	3.040742e-03	
3580	9.142479e-07	-2.99648e-03	
3581	9.152479e-07	3.001184e-03	
3582	9.160600e-07	-2.95415e-03	
3583	9.160660e-07	-6.94675e-04	
3584	9.160780e-07	-1.00929e-03	
3585	9.161020e-07	-7.65306e-04	
3586	9.161200e-07	1.799132e-03	
3587	9.161248e-07	2.782321e-03	
3588	9.161344e-07	2.365724e-03	
3589	9.161536e-07	1.692497e-04	
3590	9.161920e-07	6.002968e-05	
3591	9.162312e-07	-1.31316e-03	
3592	9.162739e-07	-1.07694e-04	

Index   time            outn            
--------------------------------------------------------------------------------
3593	9.163420e-07	2.906356e-04	
3594	9.164093e-07	-1.32402e-04	
3595	9.165438e-07	1.408390e-04	
3596	9.168129e-07	-1.26211e-04	
3597	9.173512e-07	1.362394e-04	
3598	9.183512e-07	-1.25118e-04	
3599	9.193512e-07	1.350384e-04	
3600	9.203512e-07	-1.24083e-04	
3601	9.210000e-07	1.336716e-04	
3602	9.210060e-07	2.747243e-03	
3603	9.210180e-07	2.586958e-03	
3604	9.210420e-07	1.326613e-03	
3605	9.210600e-07	-2.56321e-03	
3606	9.210648e-07	-4.53023e-03	
3607	9.210744e-07	-5.70889e-03	
3608	9.210936e-07	-6.21830e-03	
3609	9.211320e-07	1.706759e-03	
3610	9.212088e-07	9.415836e-03	
3611	9.212923e-07	-3.96832e-03	
3612	9.213755e-07	3.713250e-03	
3613	9.214787e-07	-3.36285e-03	
3614	9.215933e-07	3.171832e-03	
3615	9.218225e-07	-3.04308e-03	
3616	9.220827e-07	2.988984e-03	
3617	9.225511e-07	-2.92128e-03	
3618	9.232521e-07	2.917820e-03	
3619	9.242521e-07	-2.87525e-03	
3620	9.252521e-07	2.879697e-03	
3621	9.260600e-07	-2.83432e-03	
3622	9.260660e-07	-6.74579e-04	
3623	9.260780e-07	-1.02167e-03	
3624	9.261020e-07	-7.54513e-04	
3625	9.261200e-07	1.790706e-03	
3626	9.261248e-07	2.780231e-03	
3627	9.261344e-07	2.365540e-03	
3628	9.261536e-07	1.692323e-04	
3629	9.261920e-07	6.199419e-05	
3630	9.262312e-07	-1.31382e-03	
3631	9.262739e-07	-1.07907e-04	
3632	9.263420e-07	2.907704e-04	
3633	9.264093e-07	-1.32689e-04	
3634	9.265438e-07	1.411158e-04	
3635	9.268130e-07	-1.26497e-04	
3636	9.273512e-07	1.365192e-04	
3637	9.283512e-07	-1.25398e-04	
3638	9.293512e-07	1.353169e-04	
3639	9.303512e-07	-1.24361e-04	
3640	9.310000e-07	1.339472e-04	
3641	9.310060e-07	2.747227e-03	
3642	9.310180e-07	2.586954e-03	
3643	9.310420e-07	1.327180e-03	
3644	9.310600e-07	-2.53682e-03	
3645	9.310648e-07	-4.49701e-03	
3646	9.310744e-07	-5.66682e-03	
3647	9.310936e-07	-6.16873e-03	
3648	9.311320e-07	1.612118e-03	
3649	9.312088e-07	9.084995e-03	
3650	9.312917e-07	-3.80679e-03	

Index   time            outn            
--------------------------------------------------------------------------------
3651	9.313749e-07	3.564487e-03	
3652	9.314780e-07	-3.22713e-03	
3653	9.315925e-07	3.042134e-03	
3654	9.318216e-07	-2.91818e-03	
3655	9.320827e-07	2.866127e-03	
3656	9.325527e-07	-2.80113e-03	
3657	9.332583e-07	2.797880e-03	
3658	9.342583e-07	-2.75693e-03	
3659	9.352583e-07	2.761153e-03	
3660	9.360600e-07	-2.71729e-03	
3661	9.360660e-07	-6.54964e-04	
3662	9.360780e-07	-1.03376e-03	
3663	9.361020e-07	-7.43983e-04	
3664	9.361200e-07	1.782478e-03	
3665	9.361248e-07	2.778183e-03	
3666	9.361344e-07	2.365336e-03	
3667	9.361536e-07	1.692274e-04	
3668	9.361920e-07	6.393046e-05	
3669	9.362312e-07	-1.31448e-03	
3670	9.362739e-07	-1.08115e-04	
3671	9.363420e-07	2.909054e-04	
3672	9.364093e-07	-1.32975e-04	
3673	9.365438e-07	1.413924e-04	
3674	9.368130e-07	-1.26784e-04	
3675	9.373513e-07	1.367987e-04	
3676	9.383513e-07	-1.25678e-04	
3677	9.393513e-07	1.355950e-04	
3678	9.403513e-07	-1.24638e-04	
3679	9.410000e-07	1.342225e-04	
3680	9.410060e-07	2.747212e-03	
3681	9.410180e-07	2.586949e-03	
3682	9.410420e-07	1.327714e-03	
3683	9.410600e-07	-2.51056e-03	
3684	9.410648e-07	-4.46396e-03	
3685	9.410744e-07	-5.62528e-03	
3686	9.410936e-07	-6.11938e-03	
3687	9.411320e-07	1.522768e-03	
3688	9.412088e-07	8.765405e-03	
3689	9.412912e-07	-3.64902e-03	
3690	9.413744e-07	3.419089e-03	
3691	9.414774e-07	-3.09448e-03	
3692	9.415918e-07	2.915470e-03	
3693	9.418207e-07	-2.79618e-03	
3694	9.420828e-07	2.746144e-03	
3695	9.425544e-07	-2.68376e-03	
3696	9.432645e-07	2.680725e-03	
3697	9.442645e-07	-2.64132e-03	
3698	9.452645e-07	2.645363e-03	
3699	9.460600e-07	-2.60297e-03	
3700	9.460660e-07	-6.35788e-04	
3701	9.460780e-07	-1.04556e-03	
3702	9.461020e-07	-7.33700e-04	
3703	9.461200e-07	1.774436e-03	
3704	9.461248e-07	2.776177e-03	
3705	9.461344e-07	2.365113e-03	
3706	9.461536e-07	1.692340e-04	
3707	9.461920e-07	6.583985e-05	
3708	9.462312e-07	-1.31513e-03	

Index   time            outn            
--------------------------------------------------------------------------------
3709	9.462739e-07	-1.08316e-04	
3710	9.463420e-07	2.910405e-04	
3711	9.464093e-07	-1.33261e-04	
3712	9.465439e-07	1.416686e-04	
3713	9.468130e-07	-1.27070e-04	
3714	9.473514e-07	1.370777e-04	
3715	9.483514e-07	-1.25957e-04	
3716	9.493514e-07	1.358727e-04	
3717	9.503514e-07	-1.24915e-04	
3718	9.510000e-07	1.344973e-04	
3719	9.510060e-07	2.747198e-03	
3720	9.510180e-07	2.586945e-03	
3721	9.510420e-07	1.328215e-03	
3722	9.510600e-07	-2.48443e-03	
3723	9.510648e-07	-4.43108e-03	
3724	9.510744e-07	-5.58427e-03	
3725	9.510936e-07	-6.07028e-03	
3726	9.511320e-07	1.438459e-03	
3727	9.512088e-07	8.456971e-03	
3728	9.512907e-07	-3.49508e-03	
3729	9.513738e-07	3.277274e-03	
3730	9.514768e-07	-2.96512e-03	
3731	9.515912e-07	2.792054e-03	
3732	9.518200e-07	-2.67729e-03	
3733	9.520831e-07	2.629270e-03	
3734	9.525564e-07	-2.56939e-03	
3735	9.532715e-07	2.566609e-03	
3736	9.542715e-07	-2.52868e-03	
3737	9.552715e-07	2.532576e-03	
3738	9.560600e-07	-2.49157e-03	
3739	9.560660e-07	-6.17112e-04	
3740	9.560780e-07	-1.05704e-03	
3741	9.561020e-07	-7.23688e-04	
3742	9.561200e-07	1.766599e-03	
3743	9.561248e-07	2.774216e-03	
3744	9.561344e-07	2.364869e-03	
3745	9.561536e-07	1.692538e-04	
3746	9.561920e-07	6.772094e-05	
3747	9.562312e-07	-1.31576e-03	
3748	9.562739e-07	-1.08514e-04	
3749	9.563420e-07	2.911768e-04	
3750	9.564093e-07	-1.33548e-04	
3751	9.565439e-07	1.419455e-04	
3752	9.568131e-07	-1.27356e-04	
3753	9.573514e-07	1.373571e-04	
3754	9.583514e-07	-1.26237e-04	
3755	9.593514e-07	1.361507e-04	
3756	9.603514e-07	-1.25192e-04	
3757	9.610000e-07	1.347724e-04	
3758	9.610060e-07	2.747185e-03	
3759	9.610180e-07	2.586940e-03	
3760	9.610420e-07	1.328682e-03	
3761	9.610600e-07	-2.45844e-03	
3762	9.610648e-07	-4.39837e-03	
3763	9.610744e-07	-5.54376e-03	
3764	9.610936e-07	-6.02145e-03	
3765	9.611320e-07	1.358943e-03	
3766	9.612088e-07	8.159527e-03	

Index   time            outn            
--------------------------------------------------------------------------------
3767	9.612902e-07	-3.34505e-03	
3768	9.613733e-07	3.139017e-03	
3769	9.614763e-07	-2.83906e-03	
3770	9.615906e-07	2.671916e-03	
3771	9.618194e-07	-2.56155e-03	
3772	9.620837e-07	2.515553e-03	
3773	9.625588e-07	-2.45810e-03	
3774	9.632791e-07	2.455585e-03	
3775	9.642791e-07	-2.41907e-03	
3776	9.652791e-07	2.422848e-03	
3777	9.660600e-07	-2.38316e-03	
3778	9.660660e-07	-5.98901e-04	
3779	9.660780e-07	-1.06822e-03	
3780	9.661020e-07	-7.13947e-04	
3781	9.661200e-07	1.758966e-03	
3782	9.661248e-07	2.772300e-03	
3783	9.661344e-07	2.364603e-03	
3784	9.661536e-07	1.692865e-04	
3785	9.661920e-07	6.957380e-05	
3786	9.662312e-07	-1.31639e-03	
3787	9.662740e-07	-1.08706e-04	
3788	9.663420e-07	2.913140e-04	
3789	9.664093e-07	-1.33835e-04	
3790	9.665439e-07	1.422229e-04	
3791	9.668131e-07	-1.27642e-04	
3792	9.673515e-07	1.376368e-04	
3793	9.683515e-07	-1.26517e-04	
3794	9.693515e-07	1.364291e-04	
3795	9.703515e-07	-1.25470e-04	
3796	9.710000e-07	1.350479e-04	
3797	9.710060e-07	2.747172e-03	
3798	9.710180e-07	2.586935e-03	
3799	9.710420e-07	1.329116e-03	
3800	9.710600e-07	-2.43258e-03	
3801	9.710648e-07	-4.36585e-03	
3802	9.710744e-07	-5.50377e-03	
3803	9.710936e-07	-5.97292e-03	
3804	9.711320e-07	1.283977e-03	
3805	9.712088e-07	7.871410e-03	
3806	9.712897e-07	-3.19953e-03	
3807	9.713729e-07	3.004748e-03	
3808	9.714758e-07	-2.71664e-03	
3809	9.715902e-07	2.555355e-03	
3810	9.718189e-07	-2.44925e-03	
3811	9.720844e-07	2.405252e-03	
3812	9.725617e-07	-2.35012e-03	
3813	9.732875e-07	2.347901e-03	
3814	9.742875e-07	-2.31273e-03	
3815	9.752875e-07	2.316421e-03	
3816	9.760600e-07	-2.27798e-03	
3817	9.760660e-07	-5.81222e-04	
3818	9.760780e-07	-1.07905e-03	
3819	9.761020e-07	-7.04498e-04	
3820	9.761200e-07	1.751554e-03	
3821	9.761248e-07	2.770432e-03	
3822	9.761344e-07	2.364315e-03	
3823	9.761536e-07	1.693337e-04	
3824	9.761920e-07	7.139693e-05	

Index   time            outn            
--------------------------------------------------------------------------------
3825	9.762313e-07	-1.31700e-03	
3826	9.762740e-07	-1.08896e-04	
3827	9.763420e-07	2.914531e-04	
3828	9.764093e-07	-1.34123e-04	
3829	9.765439e-07	1.425015e-04	
3830	9.768131e-07	-1.27930e-04	
3831	9.773516e-07	1.379175e-04	
3832	9.783516e-07	-1.26798e-04	
3833	9.793516e-07	1.367084e-04	
3834	9.803516e-07	-1.25748e-04	
3835	9.810000e-07	1.353243e-04	
3836	9.810060e-07	2.747160e-03	
3837	9.810180e-07	2.586930e-03	
3838	9.810420e-07	1.329518e-03	
3839	9.810600e-07	-2.40686e-03	
3840	9.810648e-07	-4.33349e-03	
3841	9.810744e-07	-5.46428e-03	
3842	9.810936e-07	-5.92469e-03	
3843	9.811320e-07	1.213317e-03	
3844	9.812088e-07	7.595836e-03	
3845	9.812893e-07	-3.05777e-03	
3846	9.813724e-07	2.874167e-03	
3847	9.814754e-07	-2.59765e-03	
3848	9.815898e-07	2.442169e-03	
3849	9.818185e-07	-2.34018e-03	
3850	9.820855e-07	2.298186e-03	
3851	9.825650e-07	-2.24529e-03	
3852	9.832970e-07	2.243385e-03	
3853	9.842970e-07	-2.20949e-03	
3854	9.852970e-07	2.213124e-03	
3855	9.860600e-07	-2.17584e-03	
3856	9.860660e-07	-5.64064e-04	
3857	9.860780e-07	-1.08956e-03	
3858	9.861020e-07	-6.95334e-04	
3859	9.861200e-07	1.744357e-03	
3860	9.861248e-07	2.768611e-03	
3861	9.861344e-07	2.364005e-03	
3862	9.861536e-07	1.693949e-04	
3863	9.861920e-07	7.319147e-05	
3864	9.862313e-07	-1.31760e-03	
3865	9.862740e-07	-1.09082e-04	
3866	9.863420e-07	2.915944e-04	
3867	9.864093e-07	-1.34412e-04	
3868	9.865439e-07	1.427815e-04	
3869	9.868132e-07	-1.28218e-04	
3870	9.873516e-07	1.381995e-04	
3871	9.883516e-07	-1.27081e-04	
3872	9.893516e-07	1.369890e-04	
3873	9.903516e-07	-1.26028e-04	
3874	9.910000e-07	1.356020e-04	
3875	9.910060e-07	2.747149e-03	
3876	9.910180e-07	2.586924e-03	
3877	9.910420e-07	1.329886e-03	
3878	9.910600e-07	-2.38129e-03	
3879	9.910648e-07	-4.30132e-03	
3880	9.910744e-07	-5.42529e-03	
3881	9.910936e-07	-5.87680e-03	
3882	9.911320e-07	1.146725e-03	

Index   time            outn            
--------------------------------------------------------------------------------
3883	9.912088e-07	7.330793e-03	
3884	9.912889e-07	-2.92043e-03	
3885	9.913720e-07	2.747620e-03	
3886	9.914750e-07	-2.48238e-03	
3887	9.915895e-07	2.332628e-03	
3888	9.918183e-07	-2.23462e-03	
3889	9.920869e-07	2.194612e-03	
3890	9.925689e-07	-2.14386e-03	
3891	9.933074e-07	2.142287e-03	
3892	9.943074e-07	-2.10960e-03	
3893	9.953074e-07	2.113205e-03	
3894	9.960600e-07	-2.07700e-03	
3895	9.960660e-07	-5.47444e-04	
3896	9.960780e-07	-1.09972e-03	
3897	9.961020e-07	-6.86472e-04	
3898	9.961200e-07	1.737386e-03	
3899	9.961248e-07	2.766840e-03	
3900	9.961344e-07	2.363671e-03	
3901	9.961536e-07	1.694712e-04	
3902	9.961920e-07	7.495619e-05	
3903	9.962313e-07	-1.31819e-03	
3904	9.962740e-07	-1.09266e-04	
3905	9.963420e-07	2.917384e-04	
3906	9.964093e-07	-1.34703e-04	
3907	9.965439e-07	1.430635e-04	
3908	9.968132e-07	-1.28509e-04	
3909	9.973517e-07	1.384832e-04	
3910	9.983517e-07	-1.27365e-04	
3911	9.993517e-07	1.372713e-04	
3912	1.000000e-06	-1.26013e-04	
Doing analysis at TEMP = 27.000000 and TNOM = 27.000000

Warning: include: has no value, DC 0 assumed

Total analysis time (seconds) = 0.332

Total elapsed time (seconds) = 35.688 

Total DRAM available = 3743.484 MB.
DRAM currently available = 1053.426 MB.
Total ngspice program size =  316.398 MB.
Resident set size =  296.617 MB.
Shared ngspice pages =    8.082 MB.
Text (code) pages =    5.070 MB.
Stack = 0 bytes.
Library pages =  296.652 MB.

